<?xml version="1.0" encoding="UTF-8"?>

<!-- generated on 2022-03-09 15:46:18 by Eclipse SUMO duarouter Version 1.12.0
<configuration xmlns:xsi="http://www.w3.org/2001/XMLSchema-instance" xsi:noNamespaceSchemaLocation="http://sumo.dlr.de/xsd/duarouterConfiguration.xsd">

    <input>
        <net-file value="AudiKreis.net.xml"/>
        <route-files value="AudiKreis_pedestrians.trip.xml"/>
    </input>

    <output>
        <output-file value="AudiKreis_pedestrians.rou.xml"/>
        <alternatives-output value="AudiKreis_pedestrians.rou.alt.xml"/>
    </output>

    <time>
        <begin value="0"/>
        <end value="100"/>
    </time>

    <report>
        <no-warnings value="true"/>
        <ignore-errors value="true"/>
        <no-step-log value="true"/>
    </report>

</configuration>
-->

<routes xmlns:xsi="http://www.w3.org/2001/XMLSchema-instance" xsi:noNamespaceSchemaLocation="http://sumo.dlr.de/xsd/routes_file.xsd">
    <person id="1990" depart="0.00">
        <walk edges="148255507 -164051431#1 -109483345#0 -109483345#1 -885945461#0 -101430663#3 -101430663#4 101430663#5 101430663#9 -101430663#10 -101430663#12 -101430663#13"/>
    </person>
    <person id="1991" depart="0.60">
        <walk edges="-22715565#3 -22715565#5 40879527#2 -40879527#1 -40879527#0 -128361166#2 -429122724 -379797627 -148255508#0 -148255508#1 148255508#2 -148255508#3 -148255508#4 148255508#5 -148255508#6 -164062403 148255507 -164051431#1"/>
    </person>
    <person id="1992" depart="1.20">
        <walk edges="173177793#2.123 101430663#5 -101430663#4 -101430663#3 -885945461#0 -109483345#1 -109483345#0 -164051431#1 148255507 -164062403 -148255508#6 148255508#5 -148255508#4 148255508#3"/>
    </person>
    <person id="1993" depart="1.80">
        <walk edges="393244241#2 -105143872"/>
    </person>
    <person id="1994" depart="2.40">
        <walk edges="-885945461#1.298 -101430663#2"/>
    </person>
    <person id="1995" depart="3.00">
        <walk edges="-164051431#1 -109483345#0 -109483345#1 -885945461#0 -101430663#3 -101430663#4 101430663#5"/>
    </person>
    <person id="1996" depart="3.60">
        <walk edges="-101430663#13 -101430663#12 -101430663#10 101430663#9 101430663#5 -101430663#4 -101430663#3 -885945461#0 -109483345#1 -109483345#0 -164051431#1 148255507 -164062403 -148255508#6 -148255508#5"/>
    </person>
    <person id="1997" depart="4.20">
        <walk edges="148255508#0 -148255508#1 148255508#2 -148255508#3 -148255508#4 148255508#5 -148255508#6 -164062403 148255507 -164051431#1 -109483345#0 -109483345#1 -885945461#0 109483352#1"/>
    </person>
    <person id="1998" depart="4.80">
        <walk edges="-164051431#1 -109483345#0 -109483345#1 -885945461#0 -101430663#3 -101430663#4 101430663#5 101430663#9 -101430663#10 128361107#1"/>
    </person>
    <person id="1999" depart="5.40">
        <walk edges="23623674#0 -101430663#12 -101430663#10"/>
    </person>
    <person id="19910" depart="6.00">
        <walk edges="23623674#0 -101430663#12 -101430663#10 101430663#9 101430663#5 -101430663#4 -101430663#3 -885945461#0 -109483345#1 -109483345#0 -164051431#1 148255507 -164062403 148255508#6"/>
    </person>
    <person id="19911" depart="6.60">
        <walk edges="-379797627 -148255508#0"/>
    </person>
    <person id="19912" depart="7.20">
        <walk edges="885945461#0 -109483345#1 -109483345#0 -164051431#1 148255507 -164062403 -148255508#6 148255508#5 -148255508#4 -148255508#3 148255508#2 -148255508#1 -148255508#0 -379797627 -429122724 -128361166#2 -27830332#0 27830332#1 -27830332#1"/>
    </person>
    <person id="19913" depart="7.80">
        <walk edges="-109483345#0"/>
    </person>
    <person id="19914" depart="8.40">
        <walk edges="27830332#1 -27830332#0 -128361166#2 128361130"/>
    </person>
    <person id="19915" depart="9.00">
        <walk edges="23623674#0 -101430663#12 -101430663#10 101430663#9 101430663#5 -101430663#4 -101430663#3 -885945461#0 -109483345#1 -109483345#0 -164051431#1 148255507 164062403"/>
    </person>
    <person id="19916" depart="9.60">
        <walk edges="109483345#1 -885945461#0 885945461#1"/>
    </person>
    <person id="19917" depart="10.20">
        <walk edges="-429120818 -128361130 -429122724 -379797627 -148255508#0 -148255508#1 148255508#2 -148255508#3 -148255508#4 148255508#5 -148255508#6 -164062403 148255507 -164051431#1 -109483345#0 -109483345#1 -885945461#0 109483352#1"/>
    </person>
    <person id="19918" depart="10.80">
        <walk edges="25117433#3 -27830332#0 27830332#1 128361173#0"/>
    </person>
    <person id="19919" depart="11.40">
        <walk edges="303843513#0 128361094#0"/>
    </person>
    <person id="19920" depart="12.00">
        <walk edges="148255508#6 -164062403 148255507 -164051431#1 -109483345#0 -109483345#1 -885945461#0 -101430663#3"/>
    </person>
    <person id="19921" depart="12.60">
        <walk edges="-164062403 -148255508#6 148255508#5 -148255508#4 -148255508#3 148255508#2 -148255508#1 -148255508#0 -379797627 -429122724 -128361166#2 -40879527#0 -40879527#1 40879527#2 -22715565#6"/>
    </person>
    <person id="19922" depart="13.20">
        <walk edges="-101430663#9 -101430663#10 -22715565#2 -1757709850"/>
    </person>
    <person id="19923" depart="13.80">
        <walk edges="-109483345#1 -885945461#0 -101430663#3 -101430663#4 101430663#5 101430663#9 -101430663#10 -22715565#2 22715565#3 -22715565#5"/>
    </person>
    <person id="19924" depart="14.40">
        <walk edges="148255507 -164062403 -148255508#6 148255508#5 -148255508#4 -148255508#3 148255508#2 -148255508#1 -148255508#0 -379797627 -429122724 -128361166#2 -40879527#0 -40879527#1"/>
    </person>
    <person id="19925" depart="15.00">
        <walk edges="-40879527#2 -40879527#1 -40879527#0 -128361166#2 -429122724 -379797627 -148255508#0 -148255508#1 148255508#2 -148255508#3 -148255508#4 148255508#5 -148255508#6"/>
    </person>
    <person id="19926" depart="15.60">
        <walk edges="-22715565#2 22715565#3 -22715565#5 40879527#2 -40879527#1 -40879527#0 -128361166#2 429122724"/>
    </person>
    <person id="19927" depart="16.20">
        <walk edges="148255508#0 -379797627 -429122724 128361166#2"/>
    </person>
    <person id="19928" depart="16.80">
        <walk edges="-148255508#2 -148255508#3 -148255508#4 148255508#5 -148255508#6 164062403"/>
    </person>
    <person id="19929" depart="17.40">
        <walk edges="-148255508#1 -148255508#0 -379797627 -429122724 -128361130 -429120818"/>
    </person>
    <person id="19930" depart="18.00">
        <walk edges="914222974#1 -22715565#5 40879527#2 -40879527#1 -40879527#0 -128361166#2 -429122724 -379797627 -148255508#0 -148255508#1 148255508#2 -148255508#3 -148255508#4 148255508#5 -148255508#6 -164062403 148255507"/>
    </person>
    <person id="19931" depart="18.60">
        <walk edges="109483356#0 -885945461#0 -109483345#1 -109483345#0 -164051431#1 148255507 -164062403 -148255508#6 148255508#5 148255508#4"/>
    </person>
    <person id="19932" depart="19.20">
        <walk edges="27830332#1 -128361173#0 128361173#1 -22715565#6 -22715565#5 22715565#3 22715565#2"/>
    </person>
    <person id="19933" depart="19.80">
        <walk edges="-164062403 148255507 -164051431#1 -109483345#0 -109483345#1 -885945461#0 -101430663#2"/>
    </person>
    <person id="19934" depart="20.40">
        <walk edges="-25117433#3 -40879527#0 -40879527#1 40879527#2 -22715565#5 22715565#3 -22715565#2"/>
    </person>
    <person id="19935" depart="21.00">
        <walk edges="-148255508#6 -164062403 148255507 -164051431#1 -109483345#0 -109483345#1 -885945461#0 -101430663#3 678309990#1"/>
    </person>
    <person id="19936" depart="21.60">
        <walk edges="392714143#0 -25117433#3"/>
    </person>
    <person id="19937" depart="22.20">
        <walk edges="148255508#1 148255508#2 -148255508#3 -148255508#4 148255508#5 -148255508#6 -164062403 148255507 -164051431#1 -109483345#0 -109483345#1 -885945461#0 -101430663#3 -678309990#1"/>
    </person>
    <person id="19938" depart="22.80">
        <walk edges="40879527#2 -22715565#5 22715565#3 -22715565#2 -101430663#12 101430663#13"/>
    </person>
    <person id="19939" depart="23.40">
        <walk edges="-22715565#2 22715565#3 -22715565#5 -22715565#6 -175770987#1 -175770987#0"/>
    </person>
    <person id="19940" depart="24.00">
        <walk edges="109483356#0 -101430663#3 -101430663#4 101430663#5 101430663#9 -101430663#10 -22715565#2"/>
    </person>
    <person id="19941" depart="24.60">
        <walk edges="128361107#1 -22715565#2 22715565#3 -22715565#5 40879527#2 -40879527#1 40879527#0"/>
    </person>
    <person id="19942" depart="25.20">
        <walk edges="-678309990#1 -101430663#3 -885945461#0 -109483345#1 -109483345#0 -164051431#1"/>
    </person>
    <person id="19943" depart="25.80">
        <walk edges="988092051 -148255508#4 148255508#5 -148255508#6 -164062403 148255507 -164051431#1 -109483345#0 -109483345#1 -885945461#0 -101430663#3 -101430663#4 101430663#5 101430663#9"/>
    </person>
    <person id="19944" depart="26.40">
        <walk edges="-109483345#0 -109483345#1 -885945461#0 -101430663#3"/>
    </person>
    <person id="19945" depart="27.00">
        <walk edges="-128361130 -128361166#2 -27830332#0 27830332#1 -128361173#0 128361173#1"/>
    </person>
    <person id="19946" depart="27.60">
        <walk edges="22715565#5 22715565#3 -22715565#2 -101430663#10 101430663#9 101430663#5 -101430663#4 101430663#3 -885945461#1.298"/>
    </person>
    <person id="19947" depart="28.20">
        <walk edges="-101430663#5 -101430663#4 -101430663#3 -885945461#0 -109483345#1 -109483345#0 -164051431#1 148255507 -164062403 -148255508#6 148255508#5 -148255508#4 -148255508#3 148255508#2 -148255508#1 -148255508#0 -379797627 -429122724 -128361130 -429120818"/>
    </person>
    <person id="19948" depart="28.80">
        <walk edges="988092051 -148255508#4 148255508#5 -148255508#6 -164062403 148255507 -164051431#1 109483345#0"/>
    </person>
    <person id="19949" depart="29.40">
        <walk edges="885945461#1 -101430663#3 -101430663#4 101430663#5 303843513#0"/>
    </person>
    <person id="19950" depart="30.00">
        <walk edges="-101430663#12 -101430663#10 101430663#9 101430663#5 -101430663#4 -101430663#3 -885945461#0 -109483345#1 -109483345#0 164051431#1"/>
    </person>
    <person id="19951" depart="30.60">
        <walk edges="148255508#4 148255508#5 -148255508#6 -164062403 148255507 -164051431#1 -109483345#0 109483345#1"/>
    </person>
    <person id="19952" depart="31.20">
        <walk edges="-22715565#2 22715565#3 -22715565#5 40879527#2 -40879527#1 -40879527#0 -128361166#2 -429122724 -379797627 -148255508#0 -148255508#1 148255508#2 -148255508#3 -148255508#4 148255508#5 -148255508#6 -164062403 148255507"/>
    </person>
    <person id="19953" depart="31.80">
        <walk edges="-128361130 -429122724 -379797627 -148255508#0 -148255508#1 148255508#2 -148255508#3 -988092051"/>
    </person>
    <person id="19954" depart="32.40">
        <walk edges="101430663#12 -101430663#10 101430663#9 101430663#5 746700170#2"/>
    </person>
    <person id="19955" depart="33.00">
        <walk edges="392714143#0 -40879527#0 -40879527#1 40879527#2 -22715565#5 22715565#3 -22715565#2"/>
    </person>
    <person id="19956" depart="33.60">
        <walk edges="101430663#5 -101430663#4 -101430663#3 -885945461#0 -109483345#1 -109483345#0 -164051431#1 148255507 -164062403 -148255508#6 148255508#5 -148255508#4 -148255508#3"/>
    </person>
    <person id="19957" depart="34.20">
        <walk edges="40879527#2 -40879527#1 -40879527#0 -128361166#2 -429122724 379797627"/>
    </person>
    <person id="19958" depart="34.80">
        <walk edges="-23623674#0 -101430663#12 -101430663#10 101430663#9 101430663#5 -101430663#4 -101430663#3 -885945461#0 -109483345#1 -109483345#0 -164051431#1 148255507"/>
    </person>
    <person id="19959" depart="35.40">
        <walk edges="128361166#2 -429122724 -379797627 -148255508#0"/>
    </person>
    <person id="19960" depart="36.00">
        <walk edges="175770987#1 -22715565#6 -22715565#5 22715565#3 -22715565#2 -101430663#10 101430663#9 101430663#5 -101430663#4 -101430663#3 -885945461#0 109483345#1"/>
    </person>
    <person id="19961" depart="36.60">
        <walk edges="22715565#3 -22715565#2 -101430663#10 101430663#9 101430663#5 -101430663#4 -101430663#3 -885945461#0 -109483345#1 109483345#0"/>
    </person>
    <person id="19962" depart="37.20">
        <walk edges="-101430663#10 -22715565#2 22715565#3 -22715565#5 -22715565#6 128361173#1 -128361173#0 27830332#1 -27830332#0"/>
    </person>
    <person id="19963" depart="37.80">
        <walk edges="-101430663#13 -101430663#12 -22715565#2 22715565#3 -22715565#5 40879527#2 -40879527#1 -40879527#0 -128361166#2 429122724"/>
    </person>
    <person id="19964" depart="38.40">
        <walk edges="392714143#0 27830332#0"/>
    </person>
    <person id="19965" depart="39.00">
        <walk edges="-25117433#2 -25117433#3 -128361166#2 -429122724 -379797627 -148255508#0 -148255508#1 148255508#2 -148255508#3 -148255508#4 148255508#5 -148255508#6 -164062403 148255507 -164051431#1 -109483345#0 -109483345#1 -885945461#0 -101430663#3 -101430663#4"/>
    </person>
    <person id="19966" depart="39.60">
        <walk edges="392714143#0 -128361166#2 -429122724 -379797627 -148255508#0 -148255508#1 148255508#2 -148255508#3 -148255508#4 148255508#5 -148255508#6 -164062403 148255507 -164051431#1 -109483345#0 -109483345#1 -885945461#0 -101430663#3 -101430663#4 746700170#2"/>
    </person>
    <person id="19967" depart="40.20">
        <walk edges="-105143872 -128361130 -429122724 -379797627 -148255508#0 -148255508#1 148255508#2 -148255508#3 -148255508#4 148255508#5 -148255508#6 -164062403 148255507 -164051431#1 -109483345#0 -109483345#1 -885945461#0 101430663#3"/>
    </person>
    <person id="19968" depart="40.80">
        <walk edges="-101430663#5 101430663#9 -101430663#10 -22715565#2 22715565#3 -22715565#5 -22715565#6 175770987#1"/>
    </person>
    <person id="19969" depart="41.40">
        <walk edges="175770987#1 128361173#1 -128361173#0"/>
    </person>
    <person id="19970" depart="42.00">
        <walk edges="101430663#20 109483352#1"/>
    </person>
    <person id="19971" depart="42.60">
        <walk edges="-22715565#2 22715565#3 -22715565#5 40879527#2 -40879527#1 -40879527#0 -128361166#2 -429122724 379797627"/>
    </person>
    <person id="19972" depart="43.20">
        <walk edges="-885945461#1.298 -885945461#0 -109483345#1 -109483345#0 -164051431#1 148255507 -164062403 -148255508#6"/>
    </person>
    <person id="19973" depart="43.80">
        <walk edges="109483345#1 -109483345#0 -164051431#1 148255507 164062403"/>
    </person>
    <person id="19974" depart="44.40">
        <walk edges="-148255508#5 148255508#5 -148255508#4 -148255508#3 148255508#2 -148255508#1 -148255508#0 -379797627 -429122724 -128361166#2 -25117433#3 -25117433#2"/>
    </person>
    <person id="19975" depart="45.00">
        <walk edges="988092051 -988092051 -148255508#3 148255508#2 -148255508#1 148255508#0"/>
    </person>
    <person id="19976" depart="45.60">
        <walk edges="101430663#10 101430663#9"/>
    </person>
    <person id="19977" depart="46.20">
        <walk edges="-128361166#2 -429122724 -379797627 -148255508#0 -148255508#1 148255508#2 -148255508#3 -148255508#4 148255508#5 -148255508#6 -164062403"/>
    </person>
    <person id="19978" depart="46.80">
        <walk edges="-27830332#1 -128361173#0 128361173#1 -22715565#6 -22715565#5 22715565#3 -22715565#2 128361107#1"/>
    </person>
    <person id="19979" depart="47.40">
        <walk edges="-164062403 148255507 -164051431#1"/>
    </person>
    <person id="19980" depart="48.00">
        <walk edges="-101430663#5 101430663#9 -101430663#10 -22715565#2 22715565#3 -22715565#5 -22715565#6 128361173#1"/>
    </person>
    <person id="19981" depart="48.60">
        <walk edges="-164062403 -148255508#6 148255508#5 -148255508#4 -148255508#3 148255508#2 -148255508#1 -148255508#0 -379797627 -429122724 -128361166#2 -40879527#0 40879527#1"/>
    </person>
    <person id="19982" depart="49.20">
        <walk edges="303843513#0 -101430663#5"/>
    </person>
    <person id="19983" depart="49.80">
        <walk edges="-1757709850 22715565#3 -22715565#5 40879527#2 -40879527#1 -40879527#0 -128361166#2 -429122724 -379797627 -148255508#0 -148255508#1 148255508#2"/>
    </person>
    <person id="19984" depart="50.40">
        <walk edges="-148255508#6 148255508#5 -148255508#4 -148255508#3 148255508#2 -148255508#1 -148255508#0 -379797627 -429122724 -128361166#2 -27830332#0 27830332#1 -128361173#0"/>
    </person>
    <person id="19985" depart="51.00">
        <walk edges="429122724 -379797627 -148255508#0 -148255508#1 148255508#2 -148255508#3 -148255508#4 148255508#5 -148255508#6 -164062403 148255507 -164051431#1 -109483345#0 -109483345#1 -885945461#0 -101430663#3 -101430663#4 101430663#5 128361093#1"/>
    </person>
    <person id="19986" depart="51.60">
        <walk edges="101430663#2 -101430663#2.28 -101430663#2 -101430663#3 -101430663#4 101430663#5 101430663#9 -101430663#10 -22715565#2 22715565#3"/>
    </person>
    <person id="19987" depart="52.20">
        <walk edges="23623674#0 -101430663#12 -101430663#10 101430663#9 101430663#5 -101430663#4 -101430663#3 -885945461#0 -109483345#1 -109483345#0 -164051431#1 148255507 -164062403 -148255508#6 148255508#5 -148255508#4"/>
    </person>
    <person id="19988" depart="52.80">
        <walk edges="-109483345#0 -164051431#1 148255507 -164062403 -148255508#6 148255508#5 -148255508#4 -988092051"/>
    </person>
    <person id="19989" depart="53.40">
        <walk edges="-885945461#1.298 -101430663#2 -101430663#2.28 101430663#2"/>
    </person>
    <person id="19990" depart="54.00">
        <walk edges="164062403 -148255508#6 148255508#5 -148255508#4 148255508#3"/>
    </person>
    <person id="19991" depart="54.60">
        <walk edges="914222974#1 22715565#3 -22715565#2 -101430663#10 101430663#9 101430663#5 -101430663#4 -101430663#3 -885945461#0 -109483345#1"/>
    </person>
    <person id="19992" depart="55.20">
        <walk edges="-746700170#2 -101430663#4 -101430663#3 -885945461#0 -109483345#1 -109483345#0 -164051431#1 148255507 -164062403 -148255508#6 148255508#5 -148255508#4 -148255508#3 148255508#2 -148255508#1 -148255508#0 -379797627"/>
    </person>
    <person id="19993" depart="55.80">
        <walk edges="303843513#0 101430663#9 -101430663#10 -22715565#2 22715565#3 -22715565#5 -22715565#6 -175770987#1 -175770987#0"/>
    </person>
    <person id="19994" depart="56.40">
        <walk edges="-148255508#4 148255508#5 -148255508#6 -164062403 148255507 -164051431#1 -109483345#0 -109483345#1 -885945461#0 -101430663#3 -101430663#4 101430663#5 101430663#9 -101430663#10 101430663#12"/>
    </person>
    <person id="19995" depart="57.00">
        <walk edges="-885945461#1.298 101430663#3 -101430663#4 101430663#5 101430663#9 -101430663#10 -22715565#2 22715565#3 -22715565#5"/>
    </person>
    <person id="19996" depart="57.60">
        <walk edges="-175770987#0 -175770987#1 -22715565#6 40879527#2 -40879527#1 -40879527#0 -128361166#2 -128361130 429120818.310"/>
    </person>
    <person id="19997" depart="58.20">
        <walk edges="101430663#10 101430663#9 303843513#0"/>
    </person>
    <person id="19998" depart="58.80">
        <walk edges="109483352#1 -101430663#3"/>
    </person>
    <person id="19999" depart="59.40">
        <walk edges="988092051 -988092051 -148255508#3 148255508#2 -148255508#1 -148255508#0 -379797627 -429122724 -128361166#2 27830332#0"/>
    </person>
    <person id="199100" depart="60.00">
        <walk edges="885945461#1 -885945461#0 -109483345#1 -109483345#0 -164051431#1 148255507 -164062403 -148255508#6 148255508#5 -148255508#4 -148255508#3 148255508#2 -148255508#1 -148255508#0 -379797627 -429122724 -128361130 429120818.310"/>
    </person>
    <person id="199101" depart="60.60">
        <walk edges="28013725#0 392714143#0 -128361166#2 -429122724 -379797627 -148255508#0 -148255508#1"/>
    </person>
    <person id="199102" depart="61.20">
        <walk edges="101430663#3 -885945461#0 -109483345#1 -109483345#0 -164051431#1 148255507 -164062403 -148255508#6"/>
    </person>
    <person id="199103" depart="61.80">
        <walk edges="-678309990#1 -101430663#4"/>
    </person>
    <person id="199104" depart="62.40">
        <walk edges="-429120818 -128361130 -128361166#2 -40879527#0 -40879527#1 40879527#2 -22715565#5 914222974#1"/>
    </person>
    <person id="199105" depart="63.00">
        <walk edges="-22715565#2 22715565#3"/>
    </person>
    <person id="199106" depart="63.60">
        <walk edges="101430663#12 -101430663#10 101430663#9 101430663#5 -101430663#4 101430663#3 -885945461#1.298"/>
    </person>
    <person id="199107" depart="64.20">
        <walk edges="885945461#0 -109483345#1 -109483345#0 -164051431#1 148255507 -164062403 -148255508#6 148255508#5 -148255508#4 988092051"/>
    </person>
    <person id="199108" depart="64.80">
        <walk edges="109483356#0 -885945461#0 -109483345#1 -109483345#0 164051431#1"/>
    </person>
    <person id="199109" depart="65.40">
        <walk edges="-148255508#0 -379797627 -429122724 -128361166#2 -40879527#0 -40879527#1 40879527#2 -22715565#5 22715565#3 -22715565#2 -101430663#12 -23623674#0"/>
    </person>
    <person id="199110" depart="66.00">
        <walk edges="885945461#1 -101430663#3 -101430663#4 101430663#5 128361094#0"/>
    </person>
    <person id="199111" depart="66.60">
        <walk edges="109483345#1 -885945461#0 -101430663#3 -101430663#4 101430663#5 101430663#9 -101430663#10 -22715565#2 175770985"/>
    </person>
    <person id="199112" depart="67.20">
        <walk edges="-101430663#4 101430663#5 101430663#9 -101430663#10 128361107#1"/>
    </person>
    <person id="199113" depart="67.80">
        <walk edges="101430663#5 -101430663#4 -101430663#3 -885945461#0 -109483345#1 -109483345#0 -164051431#1 148255507 -164062403 -148255508#6 148255508#5 -148255508#4 -148255508#3 148255508#2 -148255508#1 -148255508#0 -379797627 -429122724 -128361166#2 392714143#0 28013725#0"/>
    </person>
    <person id="199114" depart="68.40">
        <walk edges="-148255508#0 -148255508#1 148255508#2 -148255508#3 -148255508#4 148255508#5 -148255508#6 -164062403 148255507 -164051431#1 -109483345#0 -109483345#1 885945461#0"/>
    </person>
    <person id="199115" depart="69.00">
        <walk edges="-101430663#9 101430663#9 101430663#5 -101430663#4 -101430663#3 -885945461#0 -109483345#1 -109483345#0 -164051431#1 148255507 -164062403 -148255508#6 148255508#5 -148255508#4 -148255508#3"/>
    </person>
    <person id="199116" depart="69.60">
        <walk edges="128361109#0 -22715565#5 40879527#2 -40879527#1 -40879527#0 -128361166#2 -429122724 -379797627 -148255508#0 -148255508#1 148255508#2 148255508#3"/>
    </person>
    <person id="199117" depart="70.20">
        <walk edges="-1757709850 22715565#3 -22715565#5 40879527#2 -40879527#1 -40879527#0 -128361166#2"/>
    </person>
    <person id="199118" depart="70.80">
        <walk edges="393244241#2 -40879527#0 -40879527#1 40879527#2 -22715565#6 -175770987#1 -175770987#0"/>
    </person>
    <person id="199119" depart="71.40">
        <walk edges="128361109#0 -22715565#5 -22715565#6 128361173#1 128361173#0"/>
    </person>
    <person id="199120" depart="72.00">
        <walk edges="-885945461#0 -101430663#3 -101430663#4 101430663#5 101430663#9 -101430663#10 128361107#1"/>
    </person>
    <person id="199121" depart="72.60">
        <walk edges="105143872 -128361130 429122724"/>
    </person>
    <person id="199122" depart="73.20">
        <walk edges="-148255508#5 -148255508#6 -164062403 148255507 164051431#1"/>
    </person>
    <person id="199123" depart="73.80">
        <walk edges="-1757709850 -22715565#2 -101430663#10 101430663#9 101430663#5 -101430663#4 -678309990#1"/>
    </person>
    <person id="199124" depart="74.40">
        <walk edges="148255508#3 -148255508#4 148255508#5 -148255508#6 -164062403 148255507 -164051431#1 -109483345#0 -109483345#1 -885945461#0 -101430663#3 -101430663#4 101430663#5 101430663#9 -101430663#10 -101430663#12 -23623674#0"/>
    </person>
    <person id="199125" depart="75.00">
        <walk edges="-25117433#3 -40879527#0 -40879527#1 40879527#2 -22715565#6 -175770987#1 175770987#00"/>
    </person>
    <person id="199126" depart="75.60">
        <walk edges="-101430663#9 -101430663#10 -101430663#12 101430663#13"/>
    </person>
    <person id="199127" depart="76.20">
        <walk edges="988092051"/>
    </person>
    <person id="199128" depart="76.80">
        <walk edges="-101430663#9 101430663#9 101430663#5 -101430663#4 -101430663#3 -885945461#0 -109483345#1 -109483345#0 -164051431#1 148255507 -164062403 -148255508#6"/>
    </person>
    <person id="199129" depart="77.40">
        <walk edges="-22715565#2 22715565#3 -22715565#5 40879527#2 -40879527#1 -40879527#0 -128361166#2 429122724"/>
    </person>
    <person id="199130" depart="78.00">
        <walk edges="392714143#0"/>
    </person>
    <person id="199131" depart="78.60">
        <walk edges="-40879527#2 -40879527#1 -40879527#0 -128361166#2 -429122724 -379797627 -148255508#0"/>
    </person>
    <person id="199132" depart="79.20">
        <walk edges="27830332#0 -128361166#2 -429122724 -379797627 -148255508#0 -148255508#1 148255508#2 -148255508#3 -148255508#4 148255508#5 148255508#6"/>
    </person>
    <person id="199133" depart="79.80">
        <walk edges="128361166#2 -40879527#0 -40879527#1 40879527#2 -22715565#5 914222974#1"/>
    </person>
    <person id="199134" depart="80.40">
        <walk edges="148255508#1 -148255508#0 -379797627 -429122724 -128361166#2 -40879527#0 -40879527#1 40879527#2 -22715565#5 22715565#3 -22715565#2 -101430663#10"/>
    </person>
    <person id="199135" depart="81.00">
        <walk edges="25117433#20 -25117433#3 -40879527#0 -40879527#1 40879527#2 -22715565#5 22715565#3 -22715565#2 -101430663#12 -23623674#0"/>
    </person>
    <person id="199136" depart="81.60">
        <walk edges="148255508#2 -148255508#3 -148255508#4 148255508#5 -148255508#6 -164062403 148255507 -164051431#1 -109483345#0 -109483345#1 -885945461#0 -101430663#3 678309990#1"/>
    </person>
    <person id="199137" depart="82.20">
        <walk edges="-128361173#1 -22715565#6 40879527#2 -40879527#1 -40879527#0 -128361166#2 -128361130"/>
    </person>
    <person id="199138" depart="82.80">
        <walk edges="-109483345#1 -885945461#0 109483352#1"/>
    </person>
    <person id="199139" depart="83.40">
        <walk edges="-22715565#3 -22715565#5 40879527#2 -40879527#1 -40879527#0 -128361166#2 128361130"/>
    </person>
    <person id="199140" depart="84.00">
        <walk edges="164051431#1 148255507 -164062403 -148255508#6 -148255508#5"/>
    </person>
    <person id="199141" depart="84.60">
        <walk edges="148255507 -164062403 -148255508#6 148255508#5 -148255508#4 -148255508#3 148255508#2 -148255508#1 -148255508#0 -379797627 -429122724 -128361166#2 -40879527#0 -40879527#1 40879527#2 -22715565#5 22715565#3 -22715565#2"/>
    </person>
    <person id="199142" depart="85.20">
        <walk edges="101430663#3 -885945461#0 -109483345#1 -109483345#0 -164051431#1 148255507 -164062403 -148255508#6 148255508#5 -148255508#4 -148255508#3 148255508#2 -148255508#1 -148255508#0 -379797627 -429122724 -128361166#2 -40879527#0 40879527#1"/>
    </person>
    <person id="199143" depart="85.80">
        <walk edges="27830332#1 -27830332#0 -128361166#2 -429122724 -379797627 -148255508#0 -148255508#1 148255508#2 -148255508#3 -148255508#4 148255508#5 -148255508#6 -164062403 148255507 -164051431#1 -109483345#0"/>
    </person>
    <person id="199144" depart="86.40">
        <walk edges="-885945461#1.298 101430663#3 -101430663#4 101430663#5 101430663#9 -101430663#10 -22715565#2 -22715565#3"/>
    </person>
    <person id="199145" depart="87.00">
        <walk edges="-101430663#10 22715565#2"/>
    </person>
    <person id="199146" depart="87.60">
        <walk edges="148255507 -164062403 -148255508#6 148255508#5 -148255508#4 -148255508#3 148255508#2 -148255508#1 -148255508#0 -379797627 -429122724 -128361166#2 -40879527#0 -40879527#1 40879527#2 -22715565#5 22715565#3 -22715565#2"/>
    </person>
    <person id="199147" depart="88.20">
        <walk edges="175770985 -22715565#2 -101430663#10 101430663#9 101430663#5 -101430663#4 -101430663#3 109483352#1"/>
    </person>
    <person id="199148" depart="88.80">
        <walk edges="-885945461#1.298 101430663#3 -101430663#4 101430663#5 101430663#9 -101430663#10 -101430663#12"/>
    </person>
    <person id="199149" depart="89.40">
        <walk edges="-101430663#9 -101430663#10 -22715565#2 22715565#3 -22715565#5 40879527#2 -40879527#1 -40879527#0 392714143#0"/>
    </person>
    <person id="199150" depart="90.00">
        <walk edges="40879527#1 -40879527#0 -128361166#2 -429122724 -379797627 -148255508#0 -148255508#1 148255508#2 -148255508#3 -148255508#4 148255508#5 -148255508#6 -164062403 148255507 -164051431#1 -109483345#0 -109483345#1 -885945461#0 109483352#1"/>
    </person>
    <person id="199151" depart="90.60">
        <walk edges="27830332#0 -40879527#0 -40879527#1 40879527#2 -22715565#5 22715565#3 -22715565#2 128361107#1"/>
    </person>
    <person id="199152" depart="91.20">
        <walk edges="-148255507 -164062403 -148255508#6 148255508#5 -148255508#4 -148255508#3 148255508#2 -148255508#1 -148255508#0 -379797627 -429122724 -128361166#2 -27830332#0 27830332#1 -128361173#0"/>
    </person>
    <person id="199153" depart="91.80">
        <walk edges="-25117433#2 -25117433#3 40879527#0"/>
    </person>
    <person id="199154" depart="92.40">
        <walk edges="22715565#6 -22715565#5 22715565#3 -22715565#2 -101430663#10 101430663#9 303843513#0"/>
    </person>
    <person id="199155" depart="93.00">