<?xml version="1.0" encoding="UTF-8"?>

<!-- generated on 2022-03-07 17:33:27 by Eclipse SUMO netedit Version 1.11.0
<configuration xmlns:xsi="http://www.w3.org/2001/XMLSchema-instance" xsi:noNamespaceSchemaLocation="http://sumo.dlr.de/xsd/netconvertConfiguration.xsd">

    <input>
        <sumo-net-file value="AudiKreis.net.xml"/>
    </input>

    <output>
        <output-file value="AudiKreis.net.xml"/>
    </output>

    <processing>
        <geometry.min-radius.fix.railways value="false"/>
        <geometry.max-grade.fix value="false"/>
        <offset.disable-normalization value="true"/>
        <lefthand value="false"/>
    </processing>

    <junctions>
        <no-internal-links value="false"/>
        <no-turnarounds value="true"/>
        <junctions.corner-detail value="5"/>
        <junctions.limit-turn-speed value="5.5"/>
        <rectangular-lane-cut value="false"/>
    </junctions>

    <pedestrian>
        <walkingareas value="true"/>
    </pedestrian>

    <netedit>
        <route-files value="/home/lobo/Programs/artery/scenarios/roundabout_InTAS/roudabout/vut.rou.xml"/>
    </netedit>

    <report>
        <aggregate-warnings value="5"/>
    </report>

</configuration>
-->

<net version="1.9" junctionCornerDetail="5" walkingareas="true" limitTurnSpeed="5.50" xmlns:xsi="http://www.w3.org/2001/XMLSchema-instance" xsi:noNamespaceSchemaLocation="http://sumo.dlr.de/xsd/net_file.xsd">

    <location netOffset="-674448.44,-5404376.92" convBoundary="753.50,378.34,1229.61,726.36" origBoundary="11.374331,48.767682,11.396807,48.778621" projParameter="+proj=utm +zone=32 +ellps=WGS84 +datum=WGS84 +units=m +no_defs"/>

    <type id="highway.bridleway" priority="1" numLanes="1" speed="2.78" allow="pedestrian" oneway="1" width="2.00"/>
    <type id="highway.bus_guideway" priority="1" numLanes="1" speed="27.78" allow="bus" oneway="1"/>
    <type id="highway.cycleway" priority="1" numLanes="1" speed="8.33" allow="bicycle" oneway="0" width="1.00"/>
    <type id="highway.footway" priority="1" numLanes="1" speed="2.78" allow="pedestrian" oneway="1" width="2.00"/>
    <type id="highway.ford" priority="1" numLanes="1" speed="2.78" allow="army" oneway="0"/>
    <type id="highway.living_street" priority="2" numLanes="1" speed="2.78" disallow="tram rail_urban rail rail_electric rail_fast ship" oneway="0"/>
    <type id="highway.motorway" priority="14" numLanes="2" speed="39.44" allow="private emergency authority army vip passenger hov taxi bus coach delivery truck trailer motorcycle evehicle custom1 custom2" oneway="1"/>
    <type id="highway.motorway_link" priority="9" numLanes="1" speed="22.22" allow="private emergency authority army vip passenger hov taxi bus coach delivery truck trailer motorcycle evehicle custom1 custom2" oneway="1"/>
    <type id="highway.path" priority="1" numLanes="1" speed="2.78" allow="pedestrian bicycle" oneway="0" width="2.00"/>
    <type id="highway.pedestrian" priority="1" numLanes="1" speed="2.78" allow="pedestrian" oneway="1" width="2.00"/>
    <type id="highway.primary" priority="12" numLanes="2" speed="27.78" disallow="tram rail_urban rail rail_electric rail_fast ship" oneway="0"/>
    <type id="highway.primary_link" priority="7" numLanes="1" speed="22.22" disallow="tram rail_urban rail rail_electric rail_fast ship" oneway="0"/>
    <type id="highway.raceway" priority="15" numLanes="2" speed="83.33" allow="vip" oneway="0"/>
    <type id="highway.residential" priority="3" numLanes="1" speed="13.89" disallow="tram rail_urban rail rail_electric rail_fast ship" oneway="0"/>
    <type id="highway.secondary" priority="11" numLanes="1" speed="27.78" disallow="tram rail_urban rail rail_electric rail_fast ship" oneway="0"/>
    <type id="highway.secondary_link" priority="6" numLanes="1" speed="22.22" disallow="tram rail_urban rail rail_electric rail_fast ship" oneway="0"/>
    <type id="highway.service" priority="1" numLanes="1" speed="5.56" allow="pedestrian delivery bicycle" oneway="0"/>
    <type id="highway.stairs" priority="1" numLanes="1" speed="1.39" allow="pedestrian" oneway="1" width="2.00"/>
    <type id="highway.step" priority="1" numLanes="1" speed="1.39" allow="pedestrian" oneway="1" width="2.00"/>
    <type id="highway.steps" priority="1" numLanes="1" speed="1.39" allow="pedestrian" oneway="1" width="2.00"/>
    <type id="highway.tertiary" priority="10" numLanes="1" speed="22.22" disallow="tram rail_urban rail rail_electric rail_fast ship" oneway="0"/>
    <type id="highway.tertiary_link" priority="5" numLanes="1" speed="22.22" disallow="tram rail_urban rail rail_electric rail_fast ship" oneway="0"/>
    <type id="highway.track" priority="1" numLanes="1" speed="5.56" allow="pedestrian motorcycle moped bicycle" oneway="0"/>
    <type id="highway.trunk" priority="13" numLanes="2" speed="27.78" disallow="pedestrian bicycle tram rail_urban rail rail_electric rail_fast ship" oneway="0"/>
    <type id="highway.trunk_link" priority="8" numLanes="1" speed="22.22" disallow="pedestrian bicycle tram rail_urban rail rail_electric rail_fast ship" oneway="0"/>
    <type id="highway.unclassified" priority="4" numLanes="1" speed="13.89" disallow="tram rail_urban rail rail_electric rail_fast ship" oneway="0"/>
    <type id="highway.unsurfaced" priority="1" numLanes="1" speed="8.33" disallow="tram rail_urban rail rail_electric rail_fast ship" oneway="0"/>
    <type id="railway.highspeed" priority="21" numLanes="1" speed="69.44" allow="rail_fast" oneway="1"/>
    <type id="railway.light_rail" priority="19" numLanes="1" speed="27.78" allow="rail_urban" oneway="1"/>
    <type id="railway.preserved" priority="16" numLanes="1" speed="27.78" allow="rail" oneway="1"/>
    <type id="railway.rail" priority="20" numLanes="1" speed="44.44" allow="rail" oneway="1"/>
    <type id="railway.subway" priority="18" numLanes="1" speed="27.78" allow="rail_urban" oneway="1"/>
    <type id="railway.tram" priority="17" numLanes="1" speed="13.89" allow="tram" oneway="1"/>

    <edge id=":1253186990_0" function="internal">
        <lane id=":1253186990_0_0" index="0" disallow="pedestrian bicycle tram rail_urban rail rail_electric rail_fast ship" speed="9.98" length="9.27" shape="914.40,451.15 916.52,450.93 918.05,450.77 919.37,450.23 920.90,448.89"/>
        <lane id=":1253186990_0_1" index="1" disallow="pedestrian bicycle tram rail_urban rail rail_electric rail_fast ship" speed="11.37" length="9.27" shape="914.40,451.15 917.20,451.32 919.33,452.08 921.20,452.35 923.24,451.07"/>
        <lane id=":1253186990_0_2" index="2" disallow="pedestrian bicycle tram rail_urban rail rail_electric rail_fast ship" speed="12.47" length="9.27" shape="914.87,454.31 918.27,454.37 920.85,454.96 923.11,454.97 925.58,453.25"/>
    </edge>
    <edge id=":1253186990_3" function="internal">
        <lane id=":1253186990_3_0" index="0" disallow="pedestrian bicycle tram rail_urban rail rail_electric rail_fast ship" speed="13.89" length="10.38" shape="916.53,458.88 917.87,455.91 918.37,453.63 919.04,451.47 920.90,448.89"/>
        <lane id=":1253186990_3_1" index="1" disallow="pedestrian bicycle tram rail_urban rail rail_electric rail_fast ship" speed="13.89" length="10.38" shape="916.53,458.88 918.20,456.33 919.56,454.73 921.08,453.26 923.24,451.07"/>
        <lane id=":1253186990_3_2" index="2" disallow="pedestrian bicycle tram rail_urban rail rail_electric rail_fast ship" speed="13.89" length="10.38" shape="919.27,460.53 920.58,458.02 921.89,456.55 923.47,455.25 925.58,453.25"/>
    </edge>
    <edge id=":1253187009_0" function="internal">
        <lane id=":1253187009_0_0" index="0" allow="pedestrian bicycle" speed="5.55" length="8.37" shape="800.22,538.05 800.35,535.38 801.01,533.40 802.21,532.08 803.93,531.45"/>
    </edge>
    <edge id=":1253187009_1" function="internal">
        <lane id=":1253187009_1_0" index="0" allow="pedestrian bicycle" speed="4.97" length="4.44" width="2.00" shape="804.40,534.62 803.39,534.95 802.70,535.62 802.30,536.63 802.22,537.96"/>
    </edge>
    <edge id=":1253187009_w0" function="walkingarea">
        <lane id=":1253187009_w0_0" index="0" allow="pedestrian" speed="1.00" length="4.82" width="3.20" shape="799.22,538.09 801.22,538.01 801.22,538.01 803.21,537.92 804.63,536.20 804.16,533.03 804.16,533.03 803.70,529.87 799.25,535.78 799.57,533.84 800.17,532.28 801.06,531.10 802.24,530.30"/>
    </edge>
    <edge id=":1418777918_0" function="internal">
        <lane id=":1418777918_0_0" index="0" disallow="pedestrian bicycle tram rail_urban rail rail_electric rail_fast ship" speed="13.89" length="0.28" shape="951.25,390.89 951.21,390.61"/>
    </edge>
    <edge id=":1418777918_1" function="internal">
        <lane id=":1418777918_1_0" index="0" disallow="pedestrian bicycle tram rail_urban rail rail_electric rail_fast ship" speed="13.89" length="0.15" shape="954.33,389.90 954.30,389.76"/>
    </edge>
    <edge id=":1418777951_0" function="internal">
        <lane id=":1418777951_0_0" index="0" disallow="pedestrian bicycle tram rail_urban rail rail_electric rail_fast ship" speed="13.89" length="0.26" shape="1068.93,430.76 1068.82,430.82"/>
        <lane id=":1418777951_0_1" index="1" disallow="pedestrian bicycle tram rail_urban rail rail_electric rail_fast ship" speed="13.89" length="0.26" shape="1067.58,427.85 1067.24,428.03"/>
    </edge>
    <edge id=":1418777966_0" function="internal">
        <lane id=":1418777966_0_0" index="0" allow="pedestrian bicycle" speed="2.78" length="9.46" width="2.00" shape="845.68,428.17 836.52,425.79"/>
    </edge>
    <edge id=":1418777966_1" function="internal">
        <lane id=":1418777966_1_0" index="0" allow="pedestrian bicycle" speed="2.78" length="9.49" width="2.00" shape="837.01,423.85 846.20,426.24"/>
    </edge>
    <edge id=":1418777966_w0" function="walkingarea">
        <lane id=":1418777966_w0_0" index="0" allow="pedestrian" speed="1.00" length="6.17" width="3.20" shape="845.42,429.14 845.94,427.21 845.94,427.21 846.46,425.28 837.25,422.88 836.77,424.82 836.77,424.82 836.28,426.76 837.51,428.75 840.67,429.20 840.67,429.20 843.84,429.65 844.97,429.05 844.60,429.02 844.30,429.07 844.07,429.19 843.92,429.38"/>
    </edge>
    <edge id=":1418777971_0" function="internal">
        <lane id=":1418777971_0_0" index="0" disallow="pedestrian bicycle tram rail_urban rail rail_electric rail_fast ship" speed="9.92" length="9.46" shape="947.43,428.23 949.92,426.73 951.84,425.14 953.19,423.47 953.97,421.72"/>
    </edge>
    <edge id=":1418777971_1" function="internal">
        <lane id=":1418777971_1_0" index="0" disallow="pedestrian bicycle tram rail_urban rail rail_electric rail_fast ship" speed="13.89" length="9.77" shape="947.43,428.23 950.16,426.89 952.11,426.15 954.12,425.55 957.04,424.63"/>
        <lane id=":1418777971_1_1" index="1" disallow="pedestrian bicycle tram rail_urban rail rail_electric rail_fast ship" speed="13.89" length="9.77" shape="948.92,431.06 951.52,429.79 953.37,429.09 955.29,428.53 958.06,427.67"/>
        <lane id=":1418777971_1_2" index="2" disallow="pedestrian bicycle tram rail_urban rail rail_electric rail_fast ship" speed="13.89" length="9.77" shape="950.42,433.89 952.88,432.69 954.64,432.04 956.45,431.52 959.08,430.70"/>
    </edge>
    <edge id=":1418777996_0" function="internal">
        <lane id=":1418777996_0_0" index="0" allow="pedestrian bicycle" speed="2.78" length="4.65" width="2.00" shape="830.45,439.12 831.60,439.63 832.34,440.40 832.65,441.41 832.54,442.67"/>
    </edge>
    <edge id=":1418777996_1" function="internal">
        <lane id=":1418777996_1_0" index="0" allow="pedestrian bicycle" speed="2.78" length="1.55" width="2.00" shape="830.59,442.22 830.63,441.80 830.52,441.46 830.28,441.21 829.89,441.04"/>
    </edge>
    <edge id=":1418777996_w0" function="walkingarea">
        <lane id=":1418777996_w0_0" index="0" allow="pedestrian" speed="1.00" length="2.62" width="2.00" shape="830.73,438.15 830.17,440.08 830.17,440.08 829.62,442.00 829.62,442.00 831.57,442.44 831.57,442.44 833.52,442.89 831.81,438.58 832.65,439.15 833.24,439.86 833.58,440.73 833.67,441.74"/>
    </edge>
    <edge id=":1418778002_0" function="internal">
        <lane id=":1418778002_0_0" index="0" disallow="pedestrian bicycle tram rail_urban rail rail_electric rail_fast ship" speed="22.22" length="9.52" shape="876.89,443.63 879.63,444.21 881.59,444.24 883.54,444.26 886.29,444.84"/>
        <lane id=":1418778002_0_1" index="1" disallow="pedestrian bicycle tram rail_urban rail rail_electric rail_fast ship" speed="22.22" length="9.52" shape="876.89,443.63 879.48,444.69 881.12,445.77 882.75,446.84 885.35,447.90"/>
    </edge>
    <edge id=":1418778002_w0" function="walkingarea">
        <lane id=":1418778002_w0_0" index="0" allow="pedestrian" speed="1.00" length="3.20" width="3.20" shape="885.54,442.01 882.45,441.20 882.45,441.20 879.35,440.39 879.31,442.58 880.80,442.72 882.06,442.71 883.31,442.69 884.80,442.83"/>
    </edge>
    <edge id=":1418778007_0" function="internal">
        <lane id=":1418778007_0_0" index="0" disallow="pedestrian bicycle tram rail_urban rail rail_electric rail_fast ship" speed="6.91" length="6.86" shape="1040.68,452.65 1039.68,454.27 1039.20,455.88 1039.24,457.48 1039.80,459.07"/>
        <lane id=":1418778007_0_1" index="1" disallow="pedestrian bicycle tram rail_urban rail rail_electric rail_fast ship" speed="7.81" length="8.97" shape="1040.68,452.65 1038.69,455.41 1037.41,457.65 1036.83,459.36 1036.96,460.54"/>
        <lane id=":1418778007_0_2" index="2" disallow="pedestrian bicycle tram rail_urban rail rail_electric rail_fast ship" speed="9.13" length="12.52" shape="1038.15,450.70 1035.68,454.28 1034.18,457.35 1033.66,459.93 1034.11,462.00"/>
    </edge>
    <edge id=":1418778007_3" function="internal">
        <lane id=":1418778007_3_0" index="0" disallow="pedestrian bicycle tram rail_urban rail rail_electric rail_fast ship" speed="13.89" length="17.01" shape="1028.61,445.85 1032.29,449.51 1034.93,451.95 1037.21,454.65 1039.80,459.07"/>
        <lane id=":1418778007_3_1" index="1" disallow="pedestrian bicycle tram rail_urban rail rail_electric rail_fast ship" speed="13.89" length="17.01" shape="1028.61,445.85 1031.80,449.70 1033.49,452.70 1034.83,455.94 1036.96,460.54"/>
        <lane id=":1418778007_3_2" index="2" disallow="pedestrian bicycle tram rail_urban rail rail_electric rail_fast ship" speed="13.89" length="17.01" shape="1025.97,447.70 1029.08,451.45 1030.73,454.37 1032.04,457.53 1034.11,462.00"/>
    </edge>
    <edge id=":1418778032_0" function="internal">
        <lane id=":1418778032_0_0" index="0" allow="pedestrian bicycle" speed="2.78" length="4.15" width="2.00" shape="1122.42,542.98 1121.25,542.86 1120.40,543.17 1119.88,543.90 1119.69,545.06"/>
    </edge>
    <edge id=":1418778032_1" function="internal">
        <lane id=":1418778032_1_0" index="0" allow="pedestrian bicycle" speed="2.78" length="6.52" width="2.00" shape="1122.42,542.98 1120.54,542.53 1119.25,542.19 1118.03,541.68 1116.35,540.74"/>
    </edge>
    <edge id=":1418778032_2" function="internal">
        <lane id=":1418778032_2_0" index="0" allow="pedestrian bicycle" speed="2.78" length="2.86" width="2.00" shape="1120.12,540.69 1120.86,541.00 1121.45,541.01 1122.06,540.94 1122.90,541.03"/>
    </edge>
    <edge id=":1418778032_3" function="internal">
        <lane id=":1418778032_3_0" index="0" allow="pedestrian bicycle" speed="2.78" length="4.40" width="2.00" shape="1120.12,540.69 1119.69,545.06"/>
    </edge>
    <edge id=":1418778032_4" function="internal">
        <lane id=":1418778032_4_0" index="0" allow="pedestrian bicycle" speed="2.78" length="4.66" width="2.00" shape="1117.69,545.02 1117.63,543.46 1117.39,542.23 1116.96,541.32 1116.35,540.74"/>
    </edge>
    <edge id=":1418778032_5" function="internal">
        <lane id=":1418778032_5_0" index="0" allow="pedestrian bicycle" speed="2.78" length="7.93" width="2.00" shape="1117.69,545.02 1118.06,542.80 1119.05,541.40 1120.67,540.81 1122.90,541.03"/>
    </edge>
    <edge id=":1418778032_w0" function="walkingarea">
        <lane id=":1418778032_w0_0" index="0" allow="pedestrian" speed="1.00" length="4.43" width="2.00" shape="1122.18,543.95 1122.66,542.01 1122.66,542.01 1123.14,540.06 1120.64,539.83 1119.59,541.54 1116.86,539.88 1115.83,541.60 1116.69,544.99 1118.69,545.04 1118.69,545.04 1120.69,545.08 1121.73,543.88 1121.37,543.91 1121.08,544.05 1120.87,544.29 1120.74,544.64"/>
    </edge>
    <edge id=":1418778034_0" function="internal">
        <lane id=":1418778034_0_0" index="0" allow="pedestrian bicycle" speed="2.78" length="0.10" width="2.00" shape="1126.22,543.92 1126.30,543.94"/>
    </edge>
    <edge id=":1418778034_1" function="internal">
        <lane id=":1418778034_1_0" index="0" allow="pedestrian bicycle" speed="2.78" length="0.10" width="2.00" shape="1126.78,542.00 1126.86,542.02"/>
    </edge>
    <edge id=":1418778034_w0" function="walkingarea">
        <lane id=":1418778034_w0_0" index="0" allow="pedestrian" speed="1.00" length="1.36" width="2.00" shape="1125.89,544.86 1126.54,542.97 1126.54,542.97 1127.19,541.08 1127.02,541.03 1126.54,542.97 1126.54,542.97 1126.06,544.91"/>
    </edge>
    <edge id=":1418778056_0" function="internal">
        <lane id=":1418778056_0_0" index="0" disallow="pedestrian bicycle tram rail_urban rail rail_electric rail_fast ship" speed="13.89" length="15.34" shape="970.39,568.99 967.75,565.66 965.57,563.67 962.97,562.22 959.05,560.48"/>
        <lane id=":1418778056_0_1" index="1" disallow="pedestrian bicycle tram rail_urban rail rail_electric rail_fast ship" speed="13.89" length="15.34" shape="970.39,568.99 967.89,565.06 966.28,562.13 964.22,559.78 960.35,557.55"/>
        <lane id=":1418778056_0_2" index="2" disallow="pedestrian bicycle tram rail_urban rail rail_electric rail_fast ship" speed="13.89" length="15.34" shape="972.22,566.08 969.61,562.09 967.86,559.19 965.65,556.86 961.64,554.63"/>
    </edge>
    <edge id=":1418778056_3" function="internal">
        <lane id=":1418778056_3_0" index="0" disallow="pedestrian bicycle tram rail_urban rail rail_electric rail_fast ship" speed="13.89" length="15.11" shape="974.83,560.49 970.07,560.63 966.70,561.41 963.46,561.72 959.05,560.48"/>
        <lane id=":1418778056_3_1" index="1" disallow="pedestrian bicycle tram rail_urban rail rail_electric rail_fast ship" speed="13.89" length="15.11" shape="974.83,560.49 970.41,560.17 967.36,559.89 964.43,559.18 960.35,557.55"/>
        <lane id=":1418778056_3_2" index="2" disallow="pedestrian bicycle tram rail_urban rail rail_electric rail_fast ship" speed="13.89" length="15.11" shape="975.64,557.36 971.37,557.06 968.42,556.82 965.58,556.18 961.64,554.63"/>
    </edge>
    <edge id=":1418778108_0" function="internal">
        <lane id=":1418778108_0_0" index="0" allow="pedestrian bicycle" speed="2.78" length="0.10" width="2.00" shape="1112.17,650.34 1112.17,650.34"/>
    </edge>
    <edge id=":1418778108_1" function="internal">
        <lane id=":1418778108_1_0" index="0" allow="pedestrian bicycle" speed="2.78" length="0.10" width="2.00" shape="1110.17,650.26 1110.17,650.26"/>
    </edge>
    <edge id=":1418778108_w0" function="walkingarea">
        <lane id=":1418778108_w0_0" index="0" allow="pedestrian" speed="1.00" length="1.33" width="2.00" shape="1113.17,650.37 1111.17,650.30 1111.17,650.30 1109.17,650.23 1109.17,650.23 1111.17,650.30 1111.17,650.30 1113.17,650.37"/>
    </edge>
    <edge id=":1434862677_0" function="internal">
        <lane id=":1434862677_0_0" index="0" allow="pedestrian bicycle" speed="2.78" length="0.30" width="2.00" shape="806.87,572.23 806.77,571.94"/>
    </edge>
    <edge id=":1434862677_1" function="internal">
        <lane id=":1434862677_1_0" index="0" allow="pedestrian bicycle" speed="2.78" length="0.26" width="2.00" shape="808.68,571.35 808.76,571.60"/>
    </edge>
    <edge id=":1434862677_w0" function="walkingarea">
        <lane id=":1434862677_w0_0" index="0" allow="pedestrian" speed="1.00" length="1.43" width="2.00" shape="805.92,572.54 807.81,571.91 807.81,571.91 809.71,571.28 809.64,571.05 807.73,571.65 807.73,571.65 805.82,572.24"/>
    </edge>
    <edge id=":1434862683_0" function="internal">
        <lane id=":1434862683_0_0" index="0" allow="pedestrian bicycle" speed="2.78" length="4.28" width="2.00" shape="798.70,602.96 798.16,601.95 798.02,600.96 798.30,600.01 798.99,599.09"/>
    </edge>
    <edge id=":1434862683_1" function="internal">
        <lane id=":1434862683_1_0" index="0" allow="pedestrian bicycle" speed="2.78" length="1.43" width="2.00" shape="800.41,600.49 800.18,600.80 800.09,601.12 800.14,601.44 800.32,601.78"/>
    </edge>
    <edge id=":1434862683_w0" function="walkingarea">
        <lane id=":1434862683_w0_0" index="0" allow="pedestrian" speed="1.00" length="2.53" width="2.00" shape="797.89,603.55 799.51,602.37 799.51,602.37 801.13,601.19 801.13,601.19 799.70,599.79 799.70,599.79 798.27,598.39 797.35,602.64 797.05,601.76 796.99,600.89 797.17,600.04 797.60,599.20"/>
    </edge>
    <edge id=":1434862684_0" function="internal">
        <lane id=":1434862684_0_0" index="0" allow="pedestrian bicycle" speed="2.78" length="0.30" width="2.00" shape="809.32,615.43 809.11,615.21"/>
    </edge>
    <edge id=":1434862684_1" function="internal">
        <lane id=":1434862684_1_0" index="0" allow="pedestrian bicycle" speed="2.78" length="0.30" width="2.00" shape="810.56,613.83 810.77,614.05"/>
    </edge>
    <edge id=":1434862684_w0" function="walkingarea">
        <lane id=":1434862684_w0_0" index="0" allow="pedestrian" speed="1.00" length="1.44" width="2.00" shape="808.60,616.12 810.04,614.74 810.04,614.74 811.49,613.35 811.28,613.14 809.84,614.52 809.84,614.52 808.39,615.90"/>
    </edge>
    <edge id=":1617628308_0" function="internal">
        <lane id=":1617628308_0_0" index="0" disallow="pedestrian bicycle tram rail_urban rail rail_electric rail_fast ship" speed="13.89" length="0.31" shape="824.33,592.94 824.09,593.13"/>
    </edge>
    <edge id=":1617628308_1" function="internal">
        <lane id=":1617628308_1_0" index="0" disallow="pedestrian bicycle tram rail_urban rail rail_electric rail_fast ship" speed="13.89" length="0.29" shape="822.04,590.68 822.26,590.49"/>
    </edge>
    <edge id=":1757242094_0" function="internal">
        <lane id=":1757242094_0_0" index="0" allow="pedestrian bicycle" speed="2.78" length="3.22" width="2.00" shape="799.64,548.92 799.48,548.09 799.55,547.32 799.84,546.61 800.35,545.95"/>
    </edge>
    <edge id=":1757242094_1" function="internal">
        <lane id=":1757242094_1_0" index="0" allow="pedestrian bicycle" speed="2.78" length="1.07" width="2.00" shape="801.79,547.34 801.62,547.56 801.52,547.80 801.50,548.05 801.55,548.33"/>
    </edge>
    <edge id=":1757242094_w0" function="walkingarea">
        <lane id=":1757242094_w0_0" index="0" allow="pedestrian" speed="1.00" length="2.23" width="2.00" shape="798.69,549.22 800.60,548.63 800.60,548.63 802.51,548.04 802.50,548.05 801.08,546.64 801.06,546.66 799.64,545.25 798.51,548.47 798.47,547.76 798.57,547.08 798.79,546.43 799.15,545.82"/>
    </edge>
    <edge id=":1840155787_0" function="internal">
        <lane id=":1840155787_0_0" index="0" allow="pedestrian bicycle" speed="2.78" length="2.92" width="2.00" shape="755.54,407.87 754.88,407.25 754.71,406.72 755.04,406.27 755.86,405.89"/>
    </edge>
    <edge id=":1993601915_0" function="internal">
        <lane id=":1993601915_0_0" index="0" allow="pedestrian bicycle" speed="2.78" length="0.30" width="2.00" shape="1116.95,587.16 1116.83,587.43"/>
    </edge>
    <edge id=":1993601915_1" function="internal">
        <lane id=":1993601915_1_0" index="0" allow="pedestrian bicycle" speed="2.78" length="0.30" width="2.00" shape="1114.99,586.63 1115.12,586.35"/>
    </edge>
    <edge id=":1993601915_w0" function="walkingarea">
        <lane id=":1993601915_w0_0" index="0" allow="pedestrian" speed="1.00" length="1.44" width="2.00" shape="1117.86,587.56 1116.03,586.75 1116.03,586.75 1114.20,585.95 1114.08,586.22 1115.91,587.03 1115.91,587.03 1117.74,587.83"/>
    </edge>
    <edge id=":1993601919_0" function="internal">
        <lane id=":1993601919_0_0" index="0" disallow="pedestrian bicycle tram rail_urban rail rail_electric rail_fast ship" speed="13.89" length="0.10" shape="985.09,592.53 985.09,592.53"/>
        <lane id=":1993601919_0_1" index="1" disallow="pedestrian bicycle tram rail_urban rail rail_electric rail_fast ship" speed="13.89" length="0.10" shape="981.89,592.33 981.89,592.33"/>
    </edge>
    <edge id=":2090335459_0" function="internal">
        <lane id=":2090335459_0_0" index="0" allow="pedestrian bicycle" speed="2.78" length="0.10" width="2.00" shape="824.94,475.79 824.96,475.74"/>
    </edge>
    <edge id=":2090335459_1" function="internal">
        <lane id=":2090335459_1_0" index="0" allow="pedestrian bicycle" speed="2.78" length="2.92" width="2.00" shape="824.94,475.79 824.29,476.41 823.75,476.54 823.32,476.19 823.00,475.35"/>
    </edge>
    <edge id=":2090335459_2" function="internal">
        <lane id=":2090335459_2_0" index="0" allow="pedestrian bicycle" speed="2.78" length="0.10" width="2.00" shape="822.98,475.40 823.00,475.35"/>
    </edge>
    <edge id=":2090335459_3" function="internal">
        <lane id=":2090335459_3_0" index="0" allow="pedestrian bicycle" speed="2.78" length="2.92" width="2.00" shape="822.98,475.40 823.61,474.75 824.14,474.58 824.59,474.92 824.96,475.74"/>
    </edge>
    <edge id=":2090335459_w0" function="walkingarea">
        <lane id=":2090335459_w0_0" index="0" allow="pedestrian" speed="1.00" length="1.35" width="2.00" shape="825.92,476.02 823.97,475.57 823.97,475.57 822.02,475.12 822.00,475.23 823.97,475.57 823.97,475.57 825.94,475.91"/>
    </edge>
    <edge id=":2191410382_0" function="internal">
        <lane id=":2191410382_0_0" index="0" disallow="pedestrian bicycle tram rail_urban rail rail_electric rail_fast ship" speed="13.89" length="0.30" shape="869.65,557.18 869.41,557.36"/>
    </edge>
    <edge id=":2191410382_1" function="internal">
        <lane id=":2191410382_1_0" index="0" disallow="pedestrian bicycle tram rail_urban rail rail_electric rail_fast ship" speed="13.89" length="0.30" shape="867.49,554.80 867.73,554.62"/>
    </edge>
    <edge id=":2191410413_0" function="internal">
        <lane id=":2191410413_0_0" index="0" disallow="pedestrian bicycle tram rail_urban rail rail_electric rail_fast ship" speed="13.89" length="0.27" shape="972.31,591.05 972.32,590.74"/>
        <lane id=":2191410413_0_1" index="1" disallow="pedestrian bicycle tram rail_urban rail rail_electric rail_fast ship" speed="13.89" length="0.27" shape="975.50,591.20 975.52,590.97"/>
    </edge>
    <edge id=":2247427953_w0" function="walkingarea">
        <lane id=":2247427953_w0_0" index="0" allow="pedestrian" speed="1.00" length="2.00" width="2.00" shape="1143.40,381.22 1144.17,383.07 1142.63,379.37 1143.40,381.22"/>
    </edge>
    <edge id=":2255292177_0" function="internal">
        <lane id=":2255292177_0_0" index="0" allow="pedestrian bicycle" speed="2.78" length="0.12" width="2.00" shape="809.25,579.44 809.25,579.40 809.24,579.38 809.23,579.36 809.22,579.32"/>
    </edge>
    <edge id=":2255292177_1" function="internal">
        <lane id=":2255292177_1_0" index="0" allow="pedestrian bicycle" speed="2.78" length="0.35" width="2.00" shape="811.12,578.69 811.15,578.79 811.17,578.86 811.19,578.93 811.21,579.03"/>
    </edge>
    <edge id=":2255292177_w0" function="walkingarea">
        <lane id=":2255292177_w0_0" index="0" allow="pedestrian" speed="1.00" length="1.41" width="2.00" shape="808.28,579.64 810.23,579.23 810.23,579.23 812.19,578.83 812.07,578.38 810.17,579.01 810.17,579.01 808.28,579.64"/>
    </edge>
    <edge id=":243630833_0" function="internal">
        <lane id=":243630833_0_0" index="0" allow="pedestrian bicycle" speed="2.78" length="4.26" width="2.00" shape="1129.03,511.17 1127.87,510.82 1126.80,510.71 1125.82,510.86 1124.92,511.27"/>
    </edge>
    <edge id=":243630833_1" function="internal">
        <lane id=":243630833_1_0" index="0" allow="pedestrian bicycle" speed="2.78" length="6.65" width="2.00" shape="1129.03,511.17 1127.49,510.30 1126.47,509.12 1125.99,507.65 1126.03,505.88"/>
    </edge>
    <edge id=":243630833_2" function="internal">
        <lane id=":243630833_2_0" index="0" allow="pedestrian bicycle" speed="2.78" length="3.92" width="2.00" shape="1128.00,506.19 1127.98,507.24 1128.27,508.11 1128.86,508.80 1129.77,509.32"/>
    </edge>
    <edge id=":243630833_3" function="internal">
        <lane id=":243630833_3_0" index="0" allow="pedestrian bicycle" speed="2.78" length="6.13" width="2.00" shape="1128.00,506.19 1127.60,507.82 1126.96,509.21 1126.06,510.36 1124.92,511.27"/>
    </edge>
    <edge id=":243630833_4" function="internal">
        <lane id=":243630833_4_0" index="0" allow="pedestrian bicycle" speed="2.78" length="4.41" width="2.00" shape="1123.87,509.57 1124.66,508.93 1125.28,508.10 1125.74,507.08 1126.03,505.88"/>
    </edge>
    <edge id=":243630833_5" function="internal">
        <lane id=":243630833_5_0" index="0" allow="pedestrian bicycle" speed="2.78" length="6.14" width="2.00" shape="1123.87,509.57 1125.20,508.96 1126.63,508.71 1128.15,508.83 1129.77,509.32"/>
    </edge>
    <edge id=":243630833_w0" function="walkingarea">
        <lane id=":243630833_w0_0" index="0" allow="pedestrian" speed="1.00" length="4.51" width="2.00" shape="1128.66,512.10 1129.40,510.24 1129.40,510.24 1130.15,508.39 1128.99,506.35 1127.02,506.03 1127.02,506.03 1125.04,505.72 1123.34,508.72 1124.40,510.42 1124.40,510.42 1125.45,512.12 1128.03,511.89 1127.44,511.76 1126.89,511.72 1126.37,511.76 1125.90,511.90"/>
    </edge>
    <edge id=":255887509_0" function="internal">
        <lane id=":255887509_0_0" index="0" disallow="pedestrian bicycle tram rail_urban rail rail_electric rail_fast ship" speed="13.89" length="20.32" shape="895.35,539.69 891.35,541.92 886.64,544.89 882.01,548.02 878.29,550.70"/>
    </edge>