<?xml version="1.0" encoding="UTF-8"?>

<!-- generated on 2022-03-10 09:35:57 by Eclipse SUMO duarouter Version 1.12.0
<configuration xmlns:xsi="http://www.w3.org/2001/XMLSchema-instance" xsi:noNamespaceSchemaLocation="http://sumo.dlr.de/xsd/duarouterConfiguration.xsd">

    <input>
        <net-file value="AudiKreis.net.xml"/>
        <route-files value="AudiKreis.trip.xml"/>
    </input>

    <output>
        <output-file value="AudiKreis.rou.xml"/>
        <alternatives-output value="AudiKreis.rou.alt.xml"/>
    </output>

    <time>
        <begin value="0"/>
        <end value="100"/>
    </time>

    <report>
        <no-warnings value="true"/>
        <ignore-errors value="true"/>
        <no-step-log value="true"/>
    </report>

</configuration>
-->

<routes xmlns:xsi="http://www.w3.org/2001/XMLSchema-instance" xsi:noNamespaceSchemaLocation="http://sumo.dlr.de/xsd/routes_file.xsd">
    <vehicle id="1" depart="0.50">
        <route edges="109483356#1 746700169 128361099 379795373 379795369 449057060 35926529 449057056 378946908 128361091 379795371 378946906 128361098 -746700171"/>
    </vehicle>
    <vehicle id="3" depart="1.50">
        <route edges="449057060 35926529 449057056 378946908 128361091 379795371 378946906 449057059 449057052 109483352#0"/>
    </vehicle>
    <vehicle id="5" depart="2.50">
        <route edges="988092051 988092054 35926528 746700171 128361096 449057052 378946907 379795373 379795369 449057060 35926529 449057056 60931370 213252671#0 213252671#1 128361109#0"/>
    </vehicle>
    <vehicle id="6" depart="3.00">
        <route edges="988092054"/>
    </vehicle>
    <vehicle id="7" depart="3.50">
        <route edges="128361107#1.10 128361107#2 128361106 449057056 378946908 128361091 379795371 378946906"/>
    </vehicle>
    <vehicle id="11" depart="5.50">
        <route edges="138002148 128361091 379795371 378946906 449057059 449057052 378946907 379795373 379795369 449057060"/>
    </vehicle>
    <vehicle id="13" depart="6.50">
        <route edges="128361107#1.10 128361107#2 128361106 449057056 378946908 128361091 379795371 378946906 449057059 449057052 378946907 379795373 128361094#0 128361094#1"/>
    </vehicle>
    <vehicle id="14" depart="7.00">
        <route edges="128361093#1 449057060 35926529"/>
    </vehicle>
    <vehicle id="16" depart="8.00">
        <route edges="128361109#0 128361109#0.11"/>
    </vehicle>
    <vehicle id="18" depart="9.00">
        <route edges="393244241#1 393244241#2 35744154#0 35744154#1 378946906 128361098 -746700171 -35926528 -988092054 -988092051 988092051 988092054 35926528 746700171"/>
    </vehicle>
    <vehicle id="19" depart="9.50">
        <route edges="378946907 379795373 379795369 449057060 35926529 449057056 378946908 128361091 10427555#0 10427555#1"/>
    </vehicle>
    <vehicle id="20" depart="10.00">
        <route edges="988092054 35926528 746700171 128361096 449057052 378946907"/>
    </vehicle>
    <vehicle id="22" depart="11.00">
        <route edges="128361096 449057052 378946907 379795373 379795369 449057060 35926529 449057056 378946908 128361091 379795371 378946906"/>
    </vehicle>
    <vehicle id="23" depart="11.50">
        <route edges="-128361102.252 128361107#0 128361107#1 128361107#1.10 128361107#2 128361106 449057056 378946908 128361091 379795371 378946906 128361098 -746700171 -35926528 -988092054 -988092051 988092051 988092054 35926528 746700171 128361096"/>
    </vehicle>
    <vehicle id="26" depart="13.00">
        <route edges="128361098 -746700171 -35926528 -988092054 -988092051 988092051 988092054 35926528"/>
    </vehicle>
    <vehicle id="28" depart="14.00">
        <route edges="1021661442 128361093#0 128361093#1 449057060 35926529 449057056 378946908 128361091 379795371 378946906 128361098 -746700171 -35926528 -988092054 -988092051 988092051 988092054 35926528 746700171 128361096"/>
    </vehicle>
    <vehicle id="29" depart="14.50">
        <route edges="449057059 449057052 378946907 379795373 379795369 449057060 35926529 449057056 378946908 128361091 379795371 378946906 128361098 -746700171 -35926528 -988092054 -988092051"/>
    </vehicle>
    <vehicle id="30" depart="15.00">
        <route edges="128361107#0 128361107#1 128361107#1.10 128361107#2 128361106 449057056 378946908 128361091 379795371 378946906 128361098 -746700171 -35926528 -988092054 -988092051"/>
    </vehicle>
    <vehicle id="34" depart="17.00">
        <route edges="35744154#0 35744154#1 378946906 449057059 449057052 378946907 379795373 379795369 449057060 35926529 449057056 378946908 128361091 379795371"/>
    </vehicle>
    <vehicle id="37" depart="18.50">
        <route edges="378946907 379795373 379795369 449057060 35926529 449057056 378946908 128361091 10427555#0 10427555#1 392714143#0 392714143#1"/>
    </vehicle>
    <vehicle id="38" depart="19.00">
        <route edges="1021661442 128361093#0 128361093#1 449057060 35926529 449057056 60931370 213252671#0"/>
    </vehicle>
    <vehicle id="44" depart="22.00">
        <route edges="128361093#0 128361093#1 449057060 35926529 449057056 378946908 128361091 10427555#0 10427555#1 392714143#0"/>
    </vehicle>
    <vehicle id="51" depart="25.50">
        <route edges="128361093#1 449057060 35926529 449057056 378946908 128361091 379795371 378946906 449057059 449057052 378946907 379795373 128361094#0"/>
    </vehicle>
    <vehicle id="52" depart="26.00">
        <route edges="379795373 379795369 449057060 35926529 449057056 378946908 128361091 379795371 378946906 449057059 449057052 378946907"/>
    </vehicle>
    <vehicle id="55" depart="27.50">
        <route edges="109483356#1 746700169 128361099 379795373 379795369 449057060 35926529 449057056 378946908 128361091 379795371 378946906 449057059 449057052 109483352#0 109483352#1 -201238725#2"/>
    </vehicle>
    <vehicle id="57" depart="28.50">
        <route edges="128361091 379795371 378946906 128361098 -746700171 -35926528 -988092054 -988092051 988092051 988092054 35926528 746700171"/>
    </vehicle>
    <vehicle id="60" depart="30.00">
        <route edges="35744154#1 378946906 449057059 449057052 378946907 379795373"/>
    </vehicle>
    <vehicle id="62" depart="31.00">
        <route edges="393244241#0 393244241#1 393244241#2 35744154#0 35744154#1 378946906 449057059 449057052 378946907 379795373 128361094#0 128361094#1"/>
    </vehicle>
    <vehicle id="63" depart="31.50">
        <route edges="393244241#1 393244241#2 35744154#0 35744154#1 378946906 449057059 449057052 378946907 379795373 379795369 449057060 35926529 449057056 60931370 213252671#0 213252671#1 128361109#0 128361109#0.11"/>
    </vehicle>
    <vehicle id="64" depart="32.00">
        <route edges="-988092054 -988092051 988092051 988092054 35926528 746700171 128361096 449057052 378946907 379795373 379795369 449057060 148527692#0 148527692#0.94"/>
    </vehicle>
    <vehicle id="66" depart="33.00">
        <route edges="128361109#0"/>
    </vehicle>
    <vehicle id="67" depart="33.50">
        <route edges="35926528 746700171 128361096 449057052 378946907 379795373 379795369 449057060 35926529"/>
    </vehicle>
    <vehicle id="68" depart="34.00">
        <route edges="449057052"/>
    </vehicle>
    <vehicle id="69" depart="34.50">
        <route edges="378946908 128361091 379795371 378946906 128361098 -746700171 -35926528 -988092054 -988092051 988092051 988092054"/>
    </vehicle>
    <vehicle id="70" depart="35.00">
        <route edges="393244241#0 393244241#1 393244241#2 35744154#0 35744154#1 378946906 449057059 449057052 378946907 379795373 379795369 449057060 35926529 449057056 60931370 213252671#0 213252671#1 128361109#0"/>
    </vehicle>
    <vehicle id="72" depart="36.00">
        <route edges="393244241#2 35744154#0 35744154#1 378946906 449057059 449057052 378946907 379795373"/>
    </vehicle>
    <vehicle id="75" depart="37.50">
        <route edges="746700169 128361099 379795373 379795369 449057060"/>
    </vehicle>
    <vehicle id="76" depart="38.00">
        <route edges="449057059"/>
    </vehicle>
    <vehicle id="77" depart="38.50">
        <route edges="35744154#1 378946906 449057059 449057052 378946907 379795373 379795369 449057060 35926529 449057056 378946908 128361091 10427555#0 10427555#1 392714143#0"/>
    </vehicle>
    <vehicle id="78" depart="39.00">
        <route edges="914222974#1 138002148 128361091 10427555#0 10427555#1 392714143#0"/>
    </vehicle>
    <vehicle id="79" depart="39.50">
        <route edges="128361107#1 128361107#1.10 128361107#2 128361106"/>
    </vehicle>
    <vehicle id="81" depart="40.50">
        <route edges="128361093#0 128361093#1 449057060 35926529 449057056 378946908 128361091 379795371 378946906 128361098 -746700171 -35926528 -988092054 -988092051 988092051 988092054 35926528"/>
    </vehicle>
    <vehicle id="82" depart="41.00">
        <route edges="914222974#1 138002148 128361091 379795371 378946906 449057059 449057052"/>
    </vehicle>
    <vehicle id="86" depart="43.00">
        <route edges="109483356#1 746700169 128361099 379795373 379795369 449057060 35926529 449057056 378946908 128361091 379795371 378946906 128361098 -746700171 -35926528 -988092054 -988092051 988092051 988092054 35926528"/>
    </vehicle>
    <vehicle id="87" depart="43.50">
        <route edges="393244241#0 393244241#1 393244241#2 35744154#0 35744154#1 378946906 128361098 -746700171 -35926528 -988092054 -988092051 988092051 988092054 35926528"/>
    </vehicle>
    <vehicle id="88" depart="44.00">
        <route edges="378946907 379795373 379795369 449057060 148527692#0 148527692#0.94"/>
    </vehicle>
    <vehicle id="92" depart="46.00">
        <route edges="-988092054 -988092051 988092051 988092054 35926528 746700171 128361096 449057052 378946907 379795373 379795369"/>
    </vehicle>
    <vehicle id="93" depart="46.50">
        <route edges="449057059 449057052 109483352#0 109483352#1"/>
    </vehicle>
    <vehicle id="95" depart="47.50">
        <route edges="746700171 128361096 449057052 378946907 379795373 379795369 449057060 35926529"/>
    </vehicle>
    <vehicle id="97" depart="48.50">
        <route edges="914222974#0 914222974#1 138002148 128361091 379795371 378946906 449057059 449057052 378946907 379795373 379795369 449057060 35926529 449057056 378946908"/>
    </vehicle>
    <vehicle id="100" depart="50.00">
        <route edges="35744154#1 378946906 449057059 449057052 378946907 379795373 379795369 449057060 35926529"/>
    </vehicle>
    <vehicle id="101" depart="50.50">
        <route edges="393244241#2 35744154#0 35744154#1 378946906 449057059 449057052 378946907 379795373 379795369 449057060 35926529 449057056 60931370 213252671#0 213252671#1"/>
    </vehicle>
    <vehicle id="102" depart="51.00">
        <route edges="914222974#1 138002148 128361091 379795371 378946906 449057059 449057052"/>
    </vehicle>
    <vehicle id="103" depart="51.50">
        <route edges="378946907 379795373 379795369 449057060 35926529 449057056 378946908 128361091 10427555#0 10427555#1 392714143#0"/>
    </vehicle>
    <vehicle id="104" depart="52.00">
        <route edges="109483356#0 109483356#1 746700169 128361099 379795373 379795369 449057060 35926529 449057056 378946908 128361091 379795371 378946906 128361098"/>
    </vehicle>
    <vehicle id="105" depart="52.50">
        <route edges="-988092054 -988092051 988092051 988092054"/>
    </vehicle>
    <vehicle id="106" depart="53.00">
        <route edges="379795371 378946906 449057059 449057052 378946907 379795373 379795369 449057060 148527692#0 148527692#0.94 148527692#1 128361102"/>
    </vehicle>
    <vehicle id="111" depart="55.50">
        <route edges="449057056 378946908 128361091 379795371 378946906 128361098 -746700171 -35926528 -988092054 -988092051"/>
    </vehicle>
    <vehicle id="112" depart="56.00">
        <route edges="128361099 379795373 379795369 449057060 35926529 449057056 378946908 128361091 379795371 378946906 128361098 -746700171"/>
    </vehicle>
    <vehicle id="115" depart="57.50">
        <route edges="128361094#0 128361094#1 -1021661442"/>
    </vehicle>
    <vehicle id="119" depart="59.50">
        <route edges="378946906 449057059 449057052 378946907 379795373 379795369 449057060 35926529 449057056 378946908 128361091 10427555#0"/>
    </vehicle>
    <vehicle id="120" depart="60.00">
        <route edges="201238725#2 109483356#0 109483356#1 746700169 128361099 379795373 379795369 449057060 35926529 449057056 378946908 128361091 379795371 378946906 449057059 449057052 109483352#0"/>
    </vehicle>
    <vehicle id="121" depart="60.50">
        <route edges="-988092054 -988092051 988092051 988092054 35926528 746700171 128361096 449057052 378946907 379795373 379795369 449057060 35926529 449057056 378946908 128361091 379795371 378946906 128361098"/>
    </vehicle>
    <vehicle id="122" depart="61.00">
        <route edges="35926528 746700171 128361096"/>
    </vehicle>
    <vehicle id="123" depart="61.50">
        <route edges="35926529 449057056 378946908 128361091 379795371 378946906 128361098 -746700171"/>
    </vehicle>
    <vehicle id="124" depart="62.00">
        <route edges="35744154#1 378946906 449057059 449057052 378946907 379795373 379795369 449057060 35926529 449057056 60931370 213252671#0 213252671#1 128361109#0 128361109#0.11"/>
    </vehicle>
    <vehicle id="126" depart="63.00">
        <route edges="-746700171 -35926528 -988092054 -988092051 988092051 988092054 35926528 746700171 128361096 449057052 109483352#0 109483352#1 -201238725#2"/>
    </vehicle>
    <vehicle id="128" depart="64.00">
        <route edges="914222974#1 138002148 128361091 379795371 378946906 128361098 -746700171"/>
    </vehicle>
    <vehicle id="131" depart="65.50">
        <route edges="914222974#1 138002148 128361091 379795371 378946906 128361098 -746700171 -35926528 -988092054 -988092051 988092051 988092054"/>
    </vehicle>
    <vehicle id="133" depart="66.50">
        <route edges="393244241#1 393244241#2 35744154#0 35744154#1 378946906"/>
    </vehicle>
    <vehicle id="134" depart="67.00">
        <route edges="128361096 449057052 378946907 379795373 379795369 449057060 35926529 449057056 378946908 128361091 379795371 378946906 449057059"/>
    </vehicle>
    <vehicle id="135" depart="67.50">
        <route edges="449057056 60931370 213252671#0 213252671#1 128361109#0"/>
    </vehicle>
    <vehicle id="136" depart="68.00">
        <route edges="449057056 378946908 128361091 379795371 378946906 449057059 449057052 378946907 379795373 379795369 449057060 35926529"/>
    </vehicle>
    <vehicle id="137" depart="68.50">
        <route edges="1021661442 128361093#0 128361093#1 449057060 35926529 449057056 378946908 128361091 379795371 378946906 128361098"/>
    </vehicle>
    <vehicle id="138" depart="69.00">
        <route edges="-988092054 -988092051 988092051 988092054 35926528 746700171 128361096 449057052 378946907 379795373 379795369 449057060 35926529 449057056 60931370"/>
    </vehicle>
    <vehicle id="140" depart="70.00">
        <route edges="128361094#1"/>
    </vehicle>
    <vehicle id="141" depart="70.50">
        <route edges="128361107#1.10 128361107#2 128361106 449057056 378946908 128361091 379795371 378946906 449057059 449057052 378946907 379795373 379795369 449057060 148527692#0 148527692#0.94"/>
    </vehicle>
    <vehicle id="143" depart="71.50">
        <route edges="128361096 449057052 378946907 379795373 379795369 449057060 35926529 449057056 378946908 128361091 379795371"/>
    </vehicle>
    <vehicle id="152" depart="76.00">
        <route edges="914222974#1 138002148 128361091 10427555#0 10427555#1 392714143#0"/>
    </vehicle>
    <vehicle id="153" depart="76.50">
        <route edges="449057056 378946908 128361091 379795371 378946906 449057059 449057052"/>
    </vehicle>
    <vehicle id="154" depart="77.00">
        <route edges="914222974#1 138002148 128361091 379795371 378946906 449057059 449057052 109483352#0 109483352#1"/>
    </vehicle>
    <vehicle id="155" depart="77.50">
        <route edges="378946906 449057059 449057052 378946907 379795373 379795369 449057060 35926529"/>
    </vehicle>
    <vehicle id="157" depart="78.50">
        <route edges="988092051 988092054 35926528"/>
    </vehicle>
    <vehicle id="159" depart="79.50">
        <route edges="393244241#2 35744154#0 35744154#1 378946906 449057059 449057052 378946907 379795373"/>
    </vehicle>
    <vehicle id="160" depart="80.00">
        <route edges="128361099 379795373 379795369 449057060 148527692#0 148527692#0.94 148527692#1"/>
    </vehicle>
    <vehicle id="161" depart="80.50">
        <route edges="138002148 128361091 379795371 378946906 449057059 449057052 378946907 379795373 379795369 449057060"/>
    </vehicle>
    <vehicle id="162" depart="81.00">
        <route edges="746700171 128361096 449057052 378946907 379795373 379795369 449057060 35926529 449057056 378946908 128361091 379795371 378946906 128361098 -746700171 -35926528 -988092054 -988092051"/>
    </vehicle>
    <vehicle id="164" depart="82.00">
        <route edges="109483356#1 746700169 128361099 379795373 379795369 449057060 35926529 449057056 378946908 128361091 379795371 378946906 128361098 -746700171 -35926528 -988092054 -988092051"/>
    </vehicle>
    <vehicle id="165" depart="82.50">
        <route edges="138002148 128361091 379795371 378946906 449057059 449057052 378946907 379795373 379795369 449057060 35926529 449057056 60931370 213252671#0"/>
    </vehicle>
    <vehicle id="167" depart="83.50">
        <route edges="-128361102.252 128361107#0 128361107#1 128361107#1.10 128361107#2 128361106 449057056 378946908 128361091 10427555#0 10427555#1"/>
    </vehicle>
    <vehicle id="168" depart="84.00">
        <route edges="449057059 449057052 378946907 379795373 379795369 449057060 35926529 449057056 378946908 128361091 379795371"/>
    </vehicle>
    <vehicle id="169" depart="84.50">
        <route edges="914222974#1 138002148 128361091 379795371 378946906 449057059 449057052 378946907 379795373 379795369 449057060 35926529 449057056 60931370 213252671#0 213252671#1 128361109#0"/>
    </vehicle>
    <vehicle id="172" depart="86.00">
        <route edges="128361091 379795371 378946906 449057059 449057052 378946907 379795373 379795369 449057060 148527692#0 148527692#0.94"/>
    </vehicle>
    <vehicle id="173" depart="86.50">
        <route edges="213252671#1 128361109#0 128361109#0.11"/>
    </vehicle>
    <vehicle id="176" depart="88.00">
        <route edges="378946908 128361091 379795371 378946906 449057059 449057052 378946907 379795373 379795369 449057060 148527692#0 148527692#0.94"/>
    </vehicle>
    <vehicle id="177" depart="88.50">
        <route edges="393244241#2 35744154#0 35744154#1 378946906 449057059 449057052 378946907 379795373 379795369 449057060 35926529 449057056 378946908 128361091 379795371"/>
    </vehicle>
    <vehicle id="178" depart="89.00">
        <route edges="449057059 449057052 378946907 379795373 379795369 449057060 35926529 449057056 378946908 128361091 379795371 378946906 128361098 -746700171 -35926528 -988092054 -988092051 988092051 988092054 35926528"/>
    </vehicle>
    <vehicle id="186" depart="93.00">
        <route edges="-988092054 -988092051 988092051 988092054 35926528 746700171 128361096 449057052 378946907 379795373 379795369 449057060 35926529 449057056 60931370"/>
    </vehicle>
    <vehicle id="188" depart="94.00">
        <route edges="138002148"/>
    </vehicle>
    <vehicle id="189" depart="94.50">
        <route edges="379795371 378946906 449057059 449057052 109483352#0 109483352#1 -201238725#2"/>
    </vehicle>
    <vehicle id="192" depart="96.00">
        <route edges="128361107#1 128361107#1.10 128361107#2 128361106 449057056 378946908 128361091 379795371 378946906 449057059 449057052 378946907 379795373 379795369"/>
    </vehicle>
    <vehicle id="195" depart="97.50">
        <route edges="128361093#0 128361093#1 449057060 35926529 449057056 378946908 128361091 379795371 378946906 128361098 -746700171 -35926528"/>
    </vehicle>
    <vehicle id="196" depart="98.00">
        <route edges="914222974#0 914222974#1 138002148 128361091 10427555#0 10427555#1 392714143#0"/>
    </vehicle>
    <vehicle id="198" depart="99.00">
        <route edges="988092054 35926528 746700171 128361096 449057052 109483352#0"/>
    </vehicle>
</routes>
