<?xml version="1.0" encoding="UTF-8"?>

<!-- generated on 2022-03-10 08:35:12 by Eclipse SUMO polyconvert Version 1.12.0
<configuration xmlns:xsi="http://www.w3.org/2001/XMLSchema-instance" xsi:noNamespaceSchemaLocation="http://sumo.dlr.de/xsd/polyconvertConfiguration.xsd">

    <input>
        <net-file value="AudiKreis.net.xml"/>
        <osm-files value="AudiKreis.osm"/>
    </input>

    <output>
        <output-file value="Audikreis.add.xml"/>
    </output>

    <processing>
        <ignore-errors value="true"/>
        <poi-layer-offset value="5"/>
    </processing>

    <report>
        <no-warnings value="true"/>
    </report>

</configuration>
-->

<additional xmlns:xsi="http://www.w3.org/2001/XMLSchema-instance" xsi:noNamespaceSchemaLocation="http://sumo.dlr.de/xsd/additional_file.xsd">
    <location netOffset="-674448.44,-5404376.92" convBoundary="-746.43,-557.33,1647.38,2073.06" origBoundary="11.364627,48.762698,11.396807,48.786637" projParameter="+proj=utm +zone=32 +ellps=WGS84 +datum=WGS84 +units=m +no_defs"/>

    <poly id="1011691790" type="amenity" color="237,199,199" fill="1" layer="-1.00" shape="1106.567292,675.888717 1105.890865,696.973079 1098.948799,696.744085 1099.625200,675.659722 1106.567292,675.888717"/>
    <poly id="147042406" type="natural" color="140,196,107" fill="1" layer="-4.00" shape="1145.822753,377.615023 1138.569476,371.824474 1141.810535,258.721500 1156.381640,253.026304 1240.490694,255.199757 1240.894888,271.133440 1243.913187,301.479224 1252.542784,332.290514 1251.608106,334.185919 1145.822753,377.615023"/>
    <poly id="148680860" type="landuse" color="194,194,130" fill="1" layer="-3.00" shape="381.646572,1206.643606 323.467014,1205.092230 423.134444,1086.392315 407.787138,1074.675521 372.540696,1048.184860 487.325040,909.665125 618.495997,742.566549 689.699496,624.237133 702.848740,575.128231 740.179141,577.165022 739.923554,544.703263 756.225886,543.567227 851.566478,530.032421 870.261452,568.000804 877.666717,583.019013 882.173255,585.174021 957.591896,588.294954 967.080605,588.926270 1023.248264,591.066165 1027.721302,591.239857 1113.595002,573.574161 1116.207982,573.967691 1128.379034,575.829421 1188.342091,584.976951 1225.675484,590.666340 1207.664604,1081.270874 1198.789427,1093.675546 1038.927801,1059.096204 968.967683,1050.237237 937.766958,1050.972129 854.231250,1047.318555 810.854560,1046.381949 820.696518,824.987598 821.250300,812.477362 793.569663,808.550487 735.482165,760.247606 381.646572,1206.643606"/>
    <poly id="148680871" type="building" color="255,230,230" fill="1" layer="-1.00" shape="716.509970,735.354853 736.877642,710.759545 745.530443,700.271961 769.105361,671.660687 776.621311,663.429436 781.479476,661.400977 786.816209,661.701667 791.270241,663.888336 794.556865,668.363715 795.349294,673.584261 795.191206,678.630394 793.657966,683.911588 790.067718,689.128341 764.512699,717.566248 797.568469,742.644497 802.811927,759.063484 802.150782,771.481348 786.487989,790.249297 716.509970,735.354853"/>
    <poly id="148681760" type="parking" color="184,184,179" fill="1" layer="-1.00" shape="809.853194,587.602799 801.587494,577.275045 754.814256,618.221181 764.970169,619.618479 769.041425,623.461999 809.853194,587.602799"/>
    <poly id="199510050" type="landuse" color="194,194,130" fill="1" layer="-3.00" shape="817.643702,524.140905 824.783793,481.441518 834.089730,440.267473 893.275729,459.478441 900.571445,467.906798 903.823543,480.992484 902.927787,509.568700 898.213229,514.282870 861.407986,520.817200 817.643702,524.140905"/>
    <poly id="206541026" type="building" color="255,230,230" fill="1" layer="-1.00" shape="1008.917406,374.598924 1029.093389,375.420896 1031.901352,285.902125 1013.833986,285.135169 1008.917406,374.598924"/>
    <poly id="206541027" type="amenity" color="237,199,199" fill="1" layer="-1.00" shape="754.491666,375.169494 754.072648,391.366557 756.306826,391.647917 766.475411,393.123472 784.842324,396.758344 784.242851,400.166291 802.806008,403.874126 803.631086,400.072721 837.732517,407.093406 838.081981,404.389676 838.426103,393.641870 838.091812,392.340810 763.507133,376.364161 763.720982,374.702000 755.342493,372.893115 754.553206,372.734887 754.491666,375.169494"/>
    <poly id="206541027#1" type="building" color="255,230,230" fill="1" layer="-1.00" shape="754.491666,375.169494 754.072648,391.366557 756.306826,391.647917 766.475411,393.123472 784.842324,396.758344 784.242851,400.166291 802.806008,403.874126 803.631086,400.072721 837.732517,407.093406 838.081981,404.389676 838.426103,393.641870 838.091812,392.340810 763.507133,376.364161 763.720982,374.702000 755.342493,372.893115 754.553206,372.734887 754.491666,375.169494"/>
    <poly id="208882306" type="landuse" color="194,194,130" fill="1" layer="-3.00" shape="937.507829,259.221979 1009.861481,261.490734 1010.055828,284.605020 1013.833986,285.135169 1008.917406,374.598924 1029.093389,375.420896 1055.220880,364.691972 1068.526484,358.300445 1070.118702,266.295852 1123.089932,265.877491 1118.813479,384.332833 1116.579065,388.980035 1108.322144,399.001121 1040.464555,431.161626 1034.554102,433.201369 1029.238246,433.869050 1023.986219,432.736366 1005.348070,422.984147 994.736438,419.458245 977.416196,416.689927 969.156976,413.660623 937.507829,259.221979"/>
    <poly id="208882307" type="farm" color="242,242,204" fill="1" layer="-3.00" shape="1128.379034,575.829421 1129.989613,547.008591 1134.805888,547.259895 1213.044753,573.703399 1212.045073,580.714627 1188.342091,584.976951 1128.379034,575.829421"/>
    <poly id="208882311" type="amenity" color="237,199,199" fill="1" layer="-1.00" shape="1053.714633,471.541036 1058.620001,497.551208 1063.830976,501.630969 1068.616624,503.093961 1092.689205,505.573804 1092.389399,502.004150 1100.134439,500.556079 1102.670412,500.123877 1105.139219,499.722945 1105.564301,507.502072 1118.029750,505.846141 1126.328917,504.081723 1126.005160,498.464173 1124.282780,450.713936 1121.560501,430.134829 1119.500050,420.335116 1116.609345,417.540832 1112.508872,418.613729 1105.019244,421.527281 1095.479206,424.866034 1086.661746,429.551441 1082.934696,431.848785 1080.092359,433.606477 1076.951735,433.151909 1049.474766,450.335827 1047.494999,457.182817 1053.714633,471.541036"/>
    <poly id="208882311#1" type="residential" color="235,235,227" fill="1" layer="-3.00" shape="1053.714633,471.541036 1058.620001,497.551208 1063.830976,501.630969 1068.616624,503.093961 1092.689205,505.573804 1092.389399,502.004150 1100.134439,500.556079 1102.670412,500.123877 1105.139219,499.722945 1105.564301,507.502072 1118.029750,505.846141 1126.328917,504.081723 1126.005160,498.464173 1124.282780,450.713936 1121.560501,430.134829 1119.500050,420.335116 1116.609345,417.540832 1112.508872,418.613729 1105.019244,421.527281 1095.479206,424.866034 1086.661746,429.551441 1082.934696,431.848785 1080.092359,433.606477 1076.951735,433.151909 1049.474766,450.335827 1047.494999,457.182817 1053.714633,471.541036"/>
    <poly id="208882312" type="farm" color="242,242,204" fill="1" layer="-3.00" shape="874.710961,562.121229 885.605970,554.018268 892.123628,547.146584 897.409014,541.816136 905.586452,538.534481 915.212743,539.236772 925.113096,543.863936 937.825307,553.096333 953.352732,560.258637 963.283690,563.907766 969.395031,569.996057 970.282617,579.447406 970.325844,584.166082 967.182924,590.353576 963.874381,592.207958 957.524209,592.798762 957.591896,588.294954 882.173255,585.174021 877.666717,583.019013 870.261452,568.000804 874.710961,562.121229"/>
    <poly id="208882313" type="farm" color="242,242,204" fill="1" layer="-3.00" shape="994.990040,568.006178 1001.129543,563.347906 1016.672116,556.192013 1029.347242,547.143837 1040.171079,534.989152 1046.791809,528.120870 1056.480416,525.665641 1069.597124,526.689096 1076.180590,531.791002 1117.529855,540.987888 1116.207982,573.967691 1113.595002,573.574161 1027.721302,591.239857 1023.248264,591.066165 1022.800368,596.670624 1005.527219,597.107884 991.553987,596.669624 989.120423,592.665908 987.571243,585.552466 989.172687,578.337571 992.099876,572.933251 994.990040,568.006178"/>
    <poly id="208882314" type="parking" color="184,184,179" fill="1" layer="-1.00" shape="882.173255,585.174021 882.176021,590.247448 957.524209,592.798762 957.591896,588.294954 882.173255,585.174021"/>
    <poly id="208882315" type="parking" color="184,184,179" fill="1" layer="-1.00" shape="1113.595002,573.574161 1114.698844,582.453793 1033.212885,599.734198 1022.595982,599.200887 1022.800368,596.670624 1023.248264,591.066165 1027.721302,591.239857 1113.595002,573.574161"/>
    <poly id="208883242" type="natural" color="140,196,107" fill="1" layer="-4.00" shape="811.475880,664.198726 828.093674,664.719411 820.696518,824.987598 813.854545,1044.039416 855.203377,1044.689969 855.452417,1039.090395 886.740569,1040.727569 886.652297,1045.419871 876.834495,1050.385713 797.813684,1068.792234 799.969882,998.333686 804.014350,850.710519 806.907395,771.752762 811.475880,664.198726"/>
    <poly id="213252666" type="parking" color="184,184,179" fill="1" layer="-1.00" shape="811.839644,571.143314 821.371425,581.666513 859.850222,549.639685 856.803351,546.195351 860.257927,542.965890 851.566478,530.032421 835.097234,533.911011 842.095707,543.375799 811.839644,571.143314"/>
    <poly id="213252667" type="building" color="255,230,230" fill="1" layer="-1.00" shape="828.677212,552.923999 821.994422,544.414807 800.241155,547.482645 746.796467,553.485322 749.645637,574.279542 743.317208,579.577453 740.794993,580.277263 723.994446,593.569284 749.349172,622.956460 754.814256,618.221181 801.587494,577.275045 807.767625,571.783412 828.677212,552.923999"/>
    <poly id="213252675" type="parking" color="184,184,179" fill="1" layer="-1.00" shape="830.764975,647.057557 824.028483,616.562207 840.120715,612.738539 846.895259,648.352946 830.764975,647.057557"/>
    <poly id="213286560" type="parking" color="184,184,179" fill="1" layer="-1.00" shape="759.493470,404.253040 759.932181,393.063171 766.465736,393.901970 784.187516,397.472131 783.633794,400.358602 803.292710,404.301025 803.992613,400.974105 840.436735,408.802498 840.444541,421.931113 804.647654,413.633460 759.493470,404.253040"/>
    <poly id="222759872" type="farm" color="242,242,204" fill="1" layer="-3.00" shape="1130.007837,499.802512 1211.674174,527.187969 1330.573746,563.198806 1345.839352,555.745828 1420.375717,565.431728 1434.058463,580.258715 1462.735324,586.445203 1458.261466,606.876138 1522.812710,618.830650 1618.569859,633.937587 1624.865915,603.294965 1626.230295,596.395393 1630.048438,596.815973 1624.856763,640.265805 1618.596090,643.384241 1525.383835,629.436557 1431.936623,609.853402 1326.861112,580.716529 1315.426516,572.268782 1237.607175,546.293157 1225.852381,549.206099 1124.823435,518.542478 1122.525569,513.497138 1128.311286,509.806960 1130.007837,499.802512"/>
    <poly id="22715561" type="building" color="255,230,230" fill="1" layer="-1.00" shape="896.322389,647.565688 898.248586,603.946378 905.966364,604.299565 906.229722,598.244287 949.755211,600.176297 947.951080,641.062504 943.125798,640.866703 942.733981,649.610386 896.322389,647.565688"/>
    <poly id="22715563" type="landuse" color="194,194,130" fill="1" layer="-3.00" shape="936.301296,537.906403 927.314774,528.056515 920.660752,516.521897 916.646462,503.823956 915.466161,490.569567 917.174171,477.372344 921.685228,464.841534 928.789167,453.582468 938.161406,444.096765 949.353502,436.848783 961.855063,432.167426 975.063315,430.278570 988.380011,431.263589 1001.166655,435.080210 1012.833016,441.554157 1022.837487,450.368038 1030.699679,461.128501 1036.060951,473.312501 1038.673915,486.367108 1038.410831,499.676391 1035.284248,512.606577 1029.437557,524.572500 1021.153384,535.004496 1010.814411,543.425043 998.897072,549.415191 985.968069,552.725706 972.628740,553.175188 959.496881,550.760764 947.201497,545.591159 936.301296,537.906403"/>
    <poly id="231966465" type="landuse" color="194,194,130" fill="1" layer="-3.00" shape="1122.288879,410.910109 1218.626257,370.666285 1219.925507,374.022565 1221.543062,433.518401 1211.674174,527.187969 1130.007837,499.802512 1127.990016,449.751090 1126.299222,430.517195 1123.481779,417.656386 1122.288879,410.910109"/>
    <poly id="28013665" type="building" color="255,230,230" fill="1" layer="-1.00" shape="1122.922819,594.093573 1188.481178,596.707891 1170.569570,1046.550598 1090.989092,1043.384835 1093.412744,981.156543 1096.165078,913.375684 1110.192457,913.938332 1118.718357,699.700964 1122.922819,594.093573"/>
    <poly id="28013665#1" type="shop" color="237,199,255" fill="1" layer="-1.00" shape="1122.922819,594.093573 1188.481178,596.707891 1170.569570,1046.550598 1090.989092,1043.384835 1093.412744,981.156543 1096.165078,913.375684 1110.192457,913.938332 1118.718357,699.700964 1122.922819,594.093573"/>
    <poly id="28013680" type="building" color="255,230,230" fill="1" layer="-1.00" shape="833.430421,753.725700 903.725970,756.462981 906.045584,697.012926 907.238519,666.465633 836.941838,663.728336 833.430421,753.725700"/>
    <poly id="28013712" type="parking" color="184,184,179" fill="1" layer="-1.00" shape="994.418158,850.004038 1099.884742,854.370050 1106.612767,675.845641 1001.365000,671.898206 994.418158,850.004038"/>
    <poly id="282532455" type="building" color="255,230,230" fill="1" layer="-1.00" shape="850.765573,368.316942 865.635719,369.016567 866.344624,339.355309 851.474051,338.666799 850.765573,368.316942"/>
    <poly id="28738538" type="parking" color="184,184,179" fill="1" layer="-1.00" shape="830.053785,770.664531 830.603965,754.749705 879.629565,756.419686 879.440329,761.987755 904.746511,762.847779 907.931064,665.486026 897.506372,665.159235 898.347641,653.570323 946.504491,655.536255 943.420475,774.529645 830.053785,770.664531"/>
    <poly id="30072100" type="building" color="255,230,230" fill="1" layer="-1.00" shape="1000.261083,644.494210 1001.828749,606.704669 1062.227890,609.211328 1062.614242,599.944560 1104.079872,601.668508 1102.125446,648.713688 1000.261083,644.494210"/>
    <poly id="37256430" type="residential" color="235,235,227" fill="1" layer="-3.00" shape="111.697246,1290.298719 177.461799,1277.788270 219.595793,1259.589575 258.743583,1238.605480 296.658033,1210.273525 320.972489,1185.622187 362.357906,1134.246522 407.787138,1074.675521 372.540696,1048.184860 487.325040,909.665125 618.495997,742.566549 689.699496,624.237133 702.848740,575.128231 740.179141,577.165022 739.923554,544.703263 741.094235,538.787660 813.289005,529.812104 830.205115,440.791049 766.486155,426.356364 689.927246,416.604877 653.357283,413.969243 577.297480,412.467963 503.026443,416.085851 385.486033,426.485134 274.214106,435.869941 201.581266,440.277256 67.283669,442.872707 -13.754908,442.114167 -86.422341,435.854631 -91.957289,443.559067 -105.033111,794.187702 -101.936778,804.786820 -98.880416,868.331636 -138.892351,874.071476 -148.510006,876.886942 -160.969110,883.340972 -168.422289,887.725876 -167.389746,843.967540 -272.927199,812.387699 -365.562662,842.546951 -365.422270,760.066014 -465.027846,728.485421 -499.551257,726.555039 -530.689928,729.758878 -524.059188,906.717417 -551.262511,931.905486 -689.340825,957.464189 -688.338246,995.489202 -666.997169,993.993877 -665.332144,1061.099521 -692.154761,1062.480158 -679.483688,1128.214391 -600.813066,1123.672339 -596.101352,1181.438264 -535.662945,1167.797105 -533.737994,1186.525727 -505.264556,1184.062409 -490.852758,1284.997162 -519.823381,1297.079694 -475.689404,1400.040409 -470.318361,1415.994747 -448.424238,1474.896276 -614.118780,1510.329453 -746.434387,1539.717125 -676.373926,1649.990066 -589.974047,1773.789020 -483.656574,1907.821727 -368.773489,2069.525894 -348.859901,2058.030102 -271.008225,2040.206097 -264.341641,2073.056438 -219.277741,2059.919268 -198.791213,2055.528890 -199.798529,2043.737676 -188.092115,1786.999701 -162.046768,1781.914839 -58.375116,1761.671937 -54.002683,1651.174665 98.590357,1654.856412 103.537487,1534.052417 111.697246,1290.298719"/>
    <poly id="37256432" type="residential" color="235,235,227" fill="1" layer="-3.00" shape="455.996458,42.572088 422.613967,-176.723921 401.839127,-347.673897 401.994878,-395.731941 402.000511,-397.089097 420.350494,-447.426758 387.462432,-461.916494 366.459937,-473.809594 347.709549,-486.221921 333.584970,-496.498203 319.766699,-508.812001 314.197049,-516.762787 386.557923,-518.185015 465.483420,-519.723764 464.069227,-555.192124 539.803050,-547.083519 599.062084,-540.657458 643.596571,-549.065909 676.993812,-522.643104 696.116638,-512.276241 708.260385,-510.638934 721.300679,-514.380627 730.860283,-523.237825 736.710533,-536.249766 744.805590,-542.493748 791.174576,-557.329896 809.457404,-556.545937 895.322291,-519.421955 940.607868,-514.231138 1028.079530,-525.340385 1172.782184,-529.612467 1303.138001,-519.222649 1336.242678,-510.038747 1440.392959,-458.758279 1486.884293,-434.856017 1528.606855,-419.770316 1522.166388,-392.959425 1474.173657,-411.201682 1453.462933,-420.375126 1405.463706,-453.636779 1374.438105,-470.922110 1346.568544,-481.677413 1315.959958,-490.471463 1298.581991,-493.832100 1269.861197,-495.991272 1222.233766,-495.929053 1219.969269,-418.876363 1211.623374,-335.773028 1197.412461,-236.165150 1186.943781,-165.555900 1179.161853,-108.602620 1174.030380,-59.231789 1148.188620,-60.254268 1145.312784,15.911453 1141.568349,59.762953 881.842957,118.906096 953.174857,407.852509 935.565517,418.526289 920.215269,432.441778 904.285170,447.262566 855.596697,431.462268 852.612020,430.489804 840.758083,422.486099 753.565794,405.202215 675.480831,395.091630 678.389254,346.819174 609.221374,343.842155 600.223319,321.876584 622.831878,322.050026 626.266842,174.919859 477.516250,208.617171 474.392398,207.151037 455.996458,42.572088"/>
    <poly id="379797616" type="parking" color="184,184,179" fill="1" layer="-1.00" shape="962.035304,598.325083 955.989194,599.303698 954.205856,641.870546 958.317423,641.610072 960.414933,637.804082 962.035304,598.325083"/>
    <poly id="379797618" type="farm" color="242,242,204" fill="1" layer="-3.00" shape="984.279102,565.545238 975.505471,565.325721 977.371625,569.367264 977.888463,573.522254 975.649020,624.296733 974.728117,641.468275 972.939391,650.435169 976.656734,650.551747 979.672350,580.186897 980.804699,573.391193 982.390020,569.035111 984.279102,565.545238"/>
    <poly id="379797622" type="farm" color="242,242,204" fill="1" layer="-3.00" shape="988.762548,652.144117 990.950076,602.091180 986.544883,601.630375 984.499558,649.729637 986.115977,651.415819 988.762548,652.144117"/>
    <poly id="379797623" type="farm" color="242,242,204" fill="1" layer="-3.00" shape="967.912763,669.792114 972.289431,666.001973 978.673604,663.621010 976.873156,655.609628 971.758234,655.504851 968.380123,663.565220 967.912763,669.792114"/>
    <poly id="379797624" type="farm" color="242,242,204" fill="1" layer="-3.00" shape="969.200675,598.471897 962.035304,598.325083 960.414933,637.804082 958.317423,641.610072 957.991244,649.432376 964.836144,649.947415 967.606394,637.117283 969.200675,598.471897"/>
    <poly id="425104269" type="building" color="255,230,230" fill="1" layer="-1.00" shape="1106.834550,495.848752 1122.062927,492.388156 1124.533441,503.179812 1109.312438,506.640631 1106.834550,495.848752"/>
    <poly id="425104270" type="building" color="255,230,230" fill="1" layer="-1.00" shape="1078.127681,487.549295 1096.185863,483.198354 1094.245215,475.204783 1076.187009,479.555732 1078.127681,487.549295"/>
    <poly id="425104271" type="building" color="255,230,230" fill="1" layer="-1.00" shape="1103.368762,482.088670 1118.656624,478.374036 1121.844185,491.391097 1106.549008,495.105490 1103.368762,482.088670"/>
    <poly id="425104272" type="building" color="255,230,230" fill="1" layer="-1.00" shape="1080.557659,501.510499 1079.031553,493.429810 1098.494059,489.790487 1100.020138,497.871182 1080.557659,501.510499"/>
    <poly id="425104273" type="building" color="255,230,230" fill="1" layer="-1.00" shape="1098.247407,471.169337 1121.998585,465.617533 1123.906672,473.710225 1100.148179,479.261789 1098.247407,471.169337"/>
    <poly id="425104274" type="building" color="255,230,230" fill="1" layer="-1.00" shape="1095.817394,460.256584 1120.435514,454.498335 1122.284813,462.355540 1097.666724,468.113780 1095.817394,460.256584"/>
    <poly id="425104276" type="building" color="255,230,230" fill="1" layer="-1.00" shape="1088.209947,430.834981 1116.793271,424.099682 1118.813374,432.607540 1090.230089,439.342827 1088.209947,430.834981"/>
    <poly id="425104277" type="building" color="255,230,230" fill="1" layer="-1.00" shape="1091.123858,442.029931 1118.348361,435.708161 1121.369770,448.630998 1094.145324,454.952753 1091.123858,442.029931"/>
    <poly id="425104278" type="building" color="255,230,230" fill="1" layer="-1.00" shape="1071.205605,458.783391 1088.971722,454.133988 1086.519799,444.856041 1068.760654,449.516798 1071.205605,458.783391"/>
    <poly id="425104279" type="building" color="255,230,230" fill="1" layer="-1.00" shape="1074.387453,472.923940 1092.765471,468.927919 1090.842576,460.133853 1072.464532,464.129881 1074.387453,472.923940"/>
    <poly id="475496136" type="parking" color="184,184,179" fill="1" layer="-1.00" shape="840.436735,408.802498 892.115192,424.240210 888.235400,437.514001 840.533631,423.547137 840.444541,421.931113 840.436735,408.802498"/>
    <poly id="475496137" type="parking" color="184,184,179" fill="1" layer="-1.00" shape="855.816963,390.170424 898.732238,403.175192 905.398027,401.437126 923.326741,396.057994 924.412134,397.326977 918.906510,402.405736 915.494993,404.023284 904.365260,406.700608 897.633899,407.246165 894.842169,405.044769 854.401726,394.498491 855.816963,390.170424"/>
    <poly id="475496138" type="parking" color="184,184,179" fill="1" layer="-1.00" shape="881.291268,392.993648 882.314824,355.876875 906.206761,349.594255 915.136740,390.349637 881.291268,392.993648"/>
    <poly id="475496143" type="building" color="255,230,230" fill="1" layer="-1.00" shape="943.938030,389.795081 947.728171,408.705303 944.985420,406.349657 940.717452,407.840205 922.424890,421.307419 915.191193,427.555840 906.695981,439.327598 890.689853,431.705412 896.375150,423.238908 903.546009,415.475393 914.438422,406.526833 918.906510,402.405736 924.412134,397.326977 929.607139,392.538880 932.138935,394.821151 943.938030,389.795081"/>
    <poly id="475496145" type="building" color="255,230,230" fill="1" layer="-1.00" shape="915.108854,388.424009 907.567579,351.461533 910.542990,350.853877 909.732918,346.901097 926.784972,343.452618 935.129187,384.356562 915.108854,388.424009"/>
    <poly id="475496147" type="building" color="255,230,230" fill="1" layer="-1.00" shape="838.081981,404.389676 838.426103,393.641870 841.620345,394.498509 842.431204,391.386458 854.401726,394.498491 894.842169,405.044769 890.448199,421.818177 840.805338,407.834982 841.285620,404.946214 838.081981,404.389676"/>
    <poly id="51450919" type="building" color="255,230,230" fill="1" layer="-1.00" shape="859.828320,641.148244 881.347272,635.692400 871.077791,595.451350 849.558352,600.918351 859.828320,641.148244"/>
    <poly id="53197717" type="building" color="255,230,230" fill="1" layer="-1.00" shape="798.671612,510.729671 800.867571,496.501895 803.867889,496.974165 807.056211,476.891966 816.803429,478.432300 809.740270,522.903096 762.692974,529.617851 761.214708,519.291374 780.782637,516.499822 780.329818,513.348181 798.671612,510.729671"/>
    <poly id="53197722" type="building" color="255,230,230" fill="1" layer="-1.00" shape="767.777838,453.910753 814.679159,463.846660 817.371470,451.147539 770.470044,441.211613 767.777838,453.910753"/>
    <poly id="53197723" type="building" color="255,230,230" fill="1" layer="-1.00" shape="780.426562,486.782960 782.449048,473.161661 793.626804,474.813520 792.041857,485.500203 790.387413,485.259238 789.949848,488.193850 780.426562,486.782960"/>
    <poly id="837604066" type="parking" color="184,184,179" fill="1" layer="-1.00" shape="852.169622,576.022890 858.792441,571.190477 862.015742,575.574904 863.116183,577.066864 856.485671,581.910156 852.169622,576.022890"/>
    <poly id="890135709" type="amenity" color="237,199,199" fill="1" layer="-1.00" shape="1077.532244,530.431567 1077.882307,529.118585 1081.149908,529.977668 1080.799844,531.290650 1077.532244,530.431567"/>
    <poi id="1261113098" type="amenity" color="237,199,199" layer="4.00" x="875.78" y="521.82"/>
    <poi id="1630204481" type="amenity" color="237,199,199" layer="4.00" x="1063.35" y="643.80"/>
    <poi id="1630204488" type="amenity" color="237,199,199" layer="4.00" x="943.53" y="630.75"/>
    <poi id="1630204503" type="shop" color="237,199,255" layer="4.00" x="932.13" y="637.03"/>
    <poi id="2090333574" type="amenity" color="237,199,199" layer="4.00" x="804.89" y="567.74"/>
    <poi id="2112013651" type="tourism" color="207,245,201" layer="3.00" x="985.61" y="509.03"/>
    <poi id="2229700340" type="amenity" color="237,199,199" layer="4.00" x="902.33" y="610.16"/>
    <poi id="2229700348" type="parking" color="184,184,179" layer="4.00" x="1106.92" y="596.33"/>
    <poi id="2229700355" type="amenity" color="237,199,199" layer="4.00" x="1117.03" y="676.50"/>
    <poi id="2247427911" type="amenity" color="237,199,199" layer="4.00" x="941.84" y="602.45"/>
    <poi id="2334110364" type="amenity" color="237,199,199" layer="4.00" x="925.43" y="602.83"/>
    <poi id="2334110365" type="shop" color="237,199,255" layer="4.00" x="940.58" y="611.69"/>
    <poi id="2334110366" type="shop" color="237,199,255" layer="4.00" x="938.64" y="645.67"/>
    <poi id="308656331" type="amenity" color="237,199,199" layer="4.00" x="998.91" y="657.99"/>
    <poi id="3100194409" type="building" color="255,230,230" layer="4.00" x="1110.19" y="913.94"/>
    <poi id="4260680082" type="amenity" color="237,199,199" layer="4.00" x="920.29" y="641.51"/>
    <poi id="4266393169" type="amenity" color="237,199,199" layer="4.00" x="930.93" y="401.23"/>
    <poi id="4266393170" type="shop" color="237,199,255" layer="4.00" x="879.89" y="410.55"/>
    <poi id="5978558588" type="amenity" color="237,199,199" layer="4.00" x="1024.63" y="621.92"/>
    <poi id="602685450" type="amenity" color="237,199,199" layer="4.00" x="1097.35" y="645.13"/>
    <poi id="602685451" type="amenity" color="237,199,199" layer="4.00" x="1090.30" y="644.85"/>
    <poi id="602685452" type="amenity" color="237,199,199" layer="4.00" x="1082.94" y="644.56"/>
    <poi id="7429054824" type="amenity" color="237,199,199" layer="4.00" x="883.08" y="421.01"/>
    <poi id="7817549603" type="amenity" color="237,199,199" layer="4.00" x="856.16" y="574.80"/>
    <poi id="9444903618" type="amenity" color="237,199,199" layer="4.00" x="817.82" y="557.58"/>
    <poi id="9444903619" type="amenity" color="237,199,199" layer="4.00" x="1129.64" y="626.86"/>
    <poi id="9444905617" type="shop" color="237,199,255" layer="4.00" x="902.60" y="429.15"/>
</additional>
