<?xml version="1.0" encoding="UTF-8"?>

<!-- generated on 2022-03-07 17:14:08 by Eclipse SUMO netedit Version 1.11.0
-->

<routes xmlns:xsi="http://www.w3.org/2001/XMLSchema-instance" xsi:noNamespaceSchemaLocation="http://sumo.dlr.de/xsd/routes_file.xsd">
<vType id="car" vClass="passenger" color="red"/>
    <trip id="200" type="car" depart="18.50" departSpeed="10.00" personNumber="2" from="914222974#0" to="-1021661442" via="914222974#1 138002148 128361091 379795371 378946906 449057059 449057052 378946907 379795373 128361094#0 128361094#1"/>
    <trip id="VUT" type="car" depart="19.00" departSpeed="10.00" personNumber="2" from="914222974#0" to="-1021661442" via="914222974#1 138002148 128361091 379795371 378946906 449057059 449057052 378946907 379795373 128361094#0 128361094#1"/>    
</routes>
