<?xml version="1.0" encoding="UTF-8"?>

<!-- generated on 2022-03-04 11:08:14 by Eclipse SUMO netedit Version 1.11.0
<configuration xmlns:xsi="http://www.w3.org/2001/XMLSchema-instance" xsi:noNamespaceSchemaLocation="http://sumo.dlr.de/xsd/netconvertConfiguration.xsd">

    <input>
        <sumo-net-file value="InTAS_Crossing.net.xml"/>
    </input>

    <output>
        <output-file value="InTAS_Crossing.net.xml"/>
    </output>

    <processing>
        <geometry.min-radius.fix.railways value="false"/>
        <geometry.max-grade.fix value="false"/>
        <offset.disable-normalization value="true"/>
        <lefthand value="false"/>
    </processing>

    <junctions>
        <no-internal-links value="false"/>
        <no-turnarounds value="true"/>
        <junctions.corner-detail value="5"/>
        <junctions.limit-turn-speed value="5.5"/>
        <rectangular-lane-cut value="false"/>
    </junctions>

    <pedestrian>
        <walkingareas value="false"/>
    </pedestrian>

    <netedit>
        <additional-files value="/home/lobo/Programs/artery/scenarios/crash_junction_InTAS/buildings.poly.xml"/>
    </netedit>

    <report>
        <aggregate-warnings value="5"/>
    </report>

</configuration>
-->

<additional xmlns:xsi="http://www.w3.org/2001/XMLSchema-instance" xsi:noNamespaceSchemaLocation="http://sumo.dlr.de/xsd/additional_file.xsd">
    <poly id="103505648" type="building" color="blue" fill="1" layer="2.00" shape="215106.380000,450642.800000 215154.850000,450616.460000 215149.260000,450606.230000 215100.790000,450632.570000 215106.380000,450642.800000"/>
    <poly id="103505652" type="building" color="blue" fill="1" layer="2.00" shape="215166.920000,450607.680000 215194.590000,450592.690000 215189.650000,450583.640000 215161.990000,450598.630000 215166.920000,450607.680000"/>
    <poly id="103505654" type="building" color="blue" fill="1" layer="2.00" shape="215256.250000,450556.680000 215235.240000,450520.210000 215226.140000,450525.430000 215247.140000,450561.890000 215256.250000,450556.680000"/>
    <poly id="103505659" type="building" color="blue" fill="1" layer="2.00" shape="215096.700000,450626.070000 215084.990000,450606.210000 215079.760000,450609.280000 215091.470000,450629.120000 215096.700000,450626.070000"/>
    <poly id="103505660" type="building" color="blue" fill="1" layer="2.00" shape="215085.660000,450584.480000 215080.400000,450575.820000 215050.630000,450593.780000 215055.890000,450602.450000 215085.660000,450584.480000"/>
    <poly id="103505662" type="building" color="blue" fill="1" layer="2.00" shape="215216.320000,450580.320000 215198.880000,450550.900000 215189.090000,450556.660000 215206.520000,450586.080000 215216.320000,450580.320000"/>
    <poly id="103505671" type="building" color="blue" fill="1" layer="2.00" shape="215146.610000,450571.520000 215151.170000,450579.950000 215160.700000,450574.810000 215162.300000,450577.750000 215177.970000,450569.320000 215171.800000,450557.940000 215146.610000,450571.520000"/>
    <poly id="103505674" type="building" color="blue" fill="1" layer="2.00" shape="215082.570000,450526.230000 215073.550000,450531.740000 215102.120000,450578.570000 215111.140000,450573.080000 215082.570000,450526.230000"/>
    <poly id="103505678" type="building" color="blue" fill="1" layer="2.00" shape="215077.270000,450572.240000 215066.640000,450553.380000 215061.600000,450556.180000 215072.660000,450574.780000 215077.270000,450572.240000"/>
    <poly id="118004626" type="building" color="blue" fill="1" layer="2.00" shape="215200.790000,450912.190000 215219.540000,450883.230000 215211.310000,450877.940000 215192.560000,450906.890000 215200.790000,450912.190000"/>
    <poly id="118004638" type="building" color="blue" fill="1" layer="2.00" shape="215159.390000,450881.550000 215172.930000,450883.550000 215176.280000,450860.950000 215162.730000,450858.960000 215159.390000,450881.550000"/>
    <poly id="118004641" type="building" color="blue" fill="1" layer="2.00" shape="215229.760000,450941.680000 215248.510000,450912.730000 215240.280000,450907.430000 215221.530000,450936.380000 215229.760000,450941.680000"/>
    <poly id="164937812" type="building" color="blue" fill="1" layer="2.00" shape="214944.380000,450610.340000 214975.440000,450592.230000 215021.860000,450671.500000 215009.370000,450678.940000 214990.880000,450689.640000 214944.380000,450610.340000"/>
    <poly id="188722968" type="building" color="blue" fill="1" layer="2.00" shape="215167.600000,450929.660000 215169.200000,450911.440000 215161.240000,450910.740000 215159.630000,450928.970000 215167.600000,450929.660000"/>
    <poly id="188722971" type="building" color="blue" fill="1" layer="2.00" shape="215174.170000,450889.930000 215162.830000,450891.710000 215162.150000,450900.930000 215177.500000,450901.900000 215174.170000,450889.930000"/>
    <poly id="188722973" type="building" color="blue" fill="1" layer="2.00" shape="215182.520000,450920.890000 215177.500000,450901.900000 215162.150000,450900.930000 215161.240000,450910.740000 215169.200000,450911.440000 215175.700000,450911.870000 215174.860000,450920.320000 215182.520000,450920.890000"/>
    <poly id="25188984" type="building" color="blue" fill="1" layer="2.00" shape="215038.410000,450860.560000 215020.790000,450863.480000 215022.480000,450873.640000 214980.600000,450880.560000 214979.650000,450874.860000 214968.890000,450876.640000 214943.060000,450794.070000 214984.370000,450771.150000 214984.600000,450767.300000 215007.130000,450765.890000 215038.410000,450860.560000"/>
    <poly id="253827545" type="building" color="blue" fill="1" layer="2.00" shape="215274.800000,450853.170000 215232.430000,450775.980000 215222.630000,450781.330000 215220.060000,450776.650000 215217.390000,450771.780000 215197.130000,450782.850000 215202.940000,450793.400000 215231.450000,450845.390000 215244.730000,450869.580000 215274.800000,450853.170000"/>
    <poly id="28119590" type="building" color="blue" fill="1" layer="2.00" shape="214956.360000,450925.470000 214949.310000,450886.480000 215014.690000,450875.450000 215016.150000,450884.750000 215021.400000,450913.790000 214956.360000,450925.470000"/>
    <poly id="291664091" type="building" color="blue" fill="1" layer="2.00" shape="215300.990000,450794.130000 215293.310000,450779.710000 215270.900000,450792.410000 215278.930000,450806.890000 215290.070000,450800.450000 215291.860000,450803.530000 215302.780000,450797.220000 215300.990000,450794.130000"/>
    <poly id="291664092" type="building" color="blue" fill="1" layer="2.00" shape="215309.510000,450830.810000 215300.290000,450814.160000 215287.200000,450821.820000 215296.510000,450838.620000 215309.510000,450830.810000"/>
    <poly id="300354605" type="parking" color="grey" fill="1" layer="-1.00" shape="215214.300000,450852.470000 215207.380000,450853.070000 215176.710000,450840.000000 215150.580000,450786.720000 215146.380000,450772.330000 215135.390000,450750.940000 215199.790000,450715.340000 215203.690000,450722.420000 215215.570000,450744.640000 215183.420000,450761.730000 215228.720000,450843.700000 215214.300000,450852.470000"/>
    <poly id="301419237" type="building" color="blue" fill="1" layer="2.00" shape="215165.690000,450544.840000 215170.250000,450553.280000 215179.780000,450548.140000 215181.380000,450551.080000 215197.040000,450542.640000 215190.880000,450531.270000 215165.690000,450544.840000"/>
    <poly id="341022183" type="building" color="blue" fill="1" layer="2.00" shape="215134.960000,450742.450000 215195.210000,450708.800000 215193.060000,450704.970000 215170.380000,450664.590000 215110.120000,450698.240000 215134.960000,450742.450000"/>
    <poly id="341022185" type="building" color="blue" fill="1" layer="2.00" shape="215308.110000,450771.070000 215293.200000,450744.680000 215281.340000,450751.490000 215295.110000,450778.530000 215308.110000,450771.070000"/>
    <poly id="341022187#1" type="building" color="blue" fill="1" layer="2.00" shape="215300.420000,450892.310000 215276.740000,450905.530000 215265.810000,450889.860000 215270.900000,450884.990000 215273.600000,450878.600000 215273.250000,450871.190000 215271.050000,450864.940000 215279.700000,450860.370000 215300.420000,450892.310000"/>
    <poly id="341022188" type="building" color="blue" fill="1" layer="2.00" shape="215273.980000,450769.530000 215267.130000,450773.420000 215262.060000,450776.280000 215268.180000,450787.010000 215280.090000,450780.270000 215273.980000,450769.530000"/>
    <poly id="341022190" type="building" color="blue" fill="1" layer="2.00" shape="215223.700000,450849.690000 215231.960000,450864.930000 215240.090000,450871.820000 215244.730000,450869.580000 215231.450000,450845.390000 215223.700000,450849.690000"/>
    <poly id="376779027" type="building" color="blue" fill="1" layer="2.00" shape="215212.770000,450763.380000 215217.390000,450771.780000 215197.130000,450782.850000 215192.500000,450774.440000 215212.770000,450763.380000"/>
    <poly id="376779028" type="building" color="blue" fill="1" layer="2.00" shape="215206.110000,450751.250000 215212.770000,450763.380000 215192.500000,450774.440000 215185.850000,450762.310000 215206.110000,450751.250000"/>
    <poly id="376803124" type="building" color="blue" fill="1" layer="2.00" shape="215267.130000,450773.420000 215273.980000,450769.530000 215281.590000,450765.230000 215275.610000,450754.720000 215261.150000,450762.910000 215267.130000,450773.420000"/>
    <poly id="410843401" type="building" color="blue" fill="1" layer="2.00" shape="215233.770000,450603.100000 215209.900000,450616.550000 215190.420000,450627.530000 215217.110000,450674.580000 215238.780000,450662.360000 215254.060000,450653.750000 215260.460000,450650.140000 215248.220000,450628.570000 215233.770000,450603.100000"/>
    <poly id="537262419" type="building" color="blue" fill="1" layer="2.00" shape="215211.110000,450633.880000 215218.660000,450646.120000 215236.650000,450635.080000 215229.110000,450622.840000 215211.110000,450633.880000"/>
    <poly id="672008258" type="building" color="blue" fill="1" layer="2.00" shape="215213.790000,450685.990000 215218.430000,450683.320000 215220.840000,450687.130000 215216.200000,450689.710000 215213.790000,450685.990000"/>
    <poi id="1020151534" type="building" color="blue" layer="7.00" x="16782.31" y="356612.19"/>
    <poi id="1783266650" type="amenity" color="black" layer="7.00" x="214994.27" y="450636.63"/>
    <poi id="2139161830" type="amenity" color="black" layer="7.00" x="215016.88" y="450667.28"/>
    <poi id="256411220" type="building" color="blue" layer="7.00" x="11888.27" y="355240.24"/>
    <poi id="2693520662" type="amenity" color="black" layer="7.00" x="215209.72" y="450782.98"/>
    <poi id="3495485024" type="amenity" color="black" layer="7.00" x="22292.14" y="361971.41"/>
    <poi id="3797175437" type="amenity" color="black" layer="7.00" x="215146.03" y="450722.44"/>
    <poi id="3797175438" type="amenity" color="black" layer="7.00" x="215205.37" y="450759.87"/>
    <poi id="3797175440" type="amenity" color="black" layer="7.00" x="215170.86" y="450677.50"/>
    <poi id="3797175441" type="parking" color="grey" layer="4.00" x="215193.06" y="450704.97"/>
    <poi id="4898146439" type="amenity" color="black" layer="7.00" x="215124.11" y="450695.98"/>
    <poi id="5138497804" type="amenity" color="black" layer="7.00" x="215228.69" y="450782.06"/>
    <poi id="5203101110" type="parking" color="grey" layer="4.00" x="215254.06" y="450653.75"/>
    <poi id="5355633721" type="amenity" color="black" layer="7.00" x="215205.85" y="450626.29"/>
</additional>
